data_0
_chemical_formula_structural 
                                        C6H4C38H24C6H4C38H24C6H4C38H24C6H4C38H24C6H4C38H24C6H4C38H24C6H4C38H24C6H4C38H24C6H4C38H24C6H4C38H24C6H4C38H24C6H4C38H24C6H4C38H24C6H4C38H24C6H4C38H24C6H4C38H24C2H4C2H4C2H4C2H4C2H4C2H4C2H4C2H4C2H4C2H4C2H4C2H4C2H4C2H4C2H4C2H4C2H4C2H4C2H4C2H4C2H4C2H4C2H4C2H4C2H4C2H4C2H4C2H4C2H4C2H4C2H4C2H4C2H4C2H4C2H4C2H4C2H4C2H4C2H4C2H4C2H4C2H4C2H4C2H4C2H4C2H4C2H4C2H4C6H4C38H24C6H4C38H24C6H4C38H24C6H4C38H24C6H4C38H24C6H4C38H24C6H4C38H24C6H4C38H24C6H4C38H24C6H4C38H24C6H4C38H24C6H4C38H24C6H4C38H24C6H4C38H24C6H4C38H24C6H4C38H24C2H4C2H4C2H4C2H4C2H4C2H4C2H4C2H4C2H4C2H4C2H4C2H4C2H4C2H4C2H4C2H4C2H4C2H4C2H4C2H4C2H4C2H4C2H4C2H4C2H4C2H4C2H4C2H4C2H4C2H4C2H4C2H4C2H4C2H4C2H4C2H4C2H4C2H4C2H4C2H4C2H4C2H4C2H4C2H4C2H4C2H4C2H4C2H4
_chemical_formula_sum                   'C1600 H1280'
_cell_length_a                          38.163759627482406
_cell_length_b                          27.43046377635068
_cell_length_c                          45.08771284273893
_cell_angle_alpha                       91.83273011691848
_cell_angle_beta                        89.91040925416465
_cell_angle_gamma                       89.79166950553308
_space_group_name_H-M_alt               'P 1'
_space_group_IT_number                  1
loop_
  _space_group_symop_operation_xyz
         'x, y, z' 
loop_
  _atom_site_type_symbol
  _atom_site_label
  _atom_site_symmetry_multiplicity
  _atom_site_fract_x
  _atom_site_fract_y
  _atom_site_fract_z
  _atom_site_occupancy
         C         C         1.0       0.16650152875836513           0.38151971277124413          0.8128866164465278 1.0000   
         C         C         1.0       0.19724438141792713           0.38307615672476725          0.8295598554008958 1.0000   
         C         C         1.0       0.22087999300358366           0.4220697331023836 0.8268351647145363 1.0000   
         C         C         1.0       0.21528908727368926           0.4554291204715904 0.8063590142136181 1.0000   
         C         C         1.0       0.18398751612806466           0.4527927379128397 0.7907159448962828 1.0000   
         C         C         1.0       0.16256423982976265           0.41405711856075744          0.7915655972298735 1.0000   
         H         H         1.0       0.20144899589698015           0.3600635172446313 0.8487018172081379 1.0000   
         H         H         1.0       0.24220726737487916           0.4227291282840309 0.8428380098657446 1.0000   
         H         H         1.0       0.17774598022004592           0.4773139841854103 0.7737416169358987 1.0000   
         H         H         1.0       0.1390887434270594  0.41650365082709945           0.7773260773392013 1.0000   
         C         C         1.0       0.3010555568785217  0.45613548045451763           0.8043237376894877 1.0000   
         C         C         1.0       0.282007407296089   0.49915952212512726           0.8002747570640117 1.0000   
         C         C         1.0       0.30087879652031246           0.5418852951576467 0.8006955686305742 1.0000   
         C         C         1.0       0.33689302830745976           0.5435496701506558 0.805646579620179  1.0000   
         C         C         1.0       0.35441066305490015           0.5024665493488756 0.8099449932303493 1.0000   
         C         C         1.0       0.338075816786423   0.4582424707096498  0.807984741632131  1.0000   
         C         C         1.0       0.24022701459006954           0.5017919977145854 0.7995428813637256 1.0000   
         C         C         1.0       0.22416289209275742           0.5395452391079659 0.8229070243722607 1.0000   
         C         C         1.0       0.19197044218228812           0.5648298404734242 0.8227089703406578 1.0000   
         C         C         1.0       0.18561050363079554           0.6045909431493804 0.8405573331476693 1.0000   
         C         C         1.0       0.2086155880397451  0.6176134776749584  0.8633167543339967 1.0000   
         C         C         1.0       0.23857537638129125           0.5899256754706959 0.8659598907650125 1.0000   
         C         C         1.0       0.24305354110935698           0.5478992145424517 0.848797879204569  1.0000   
         C         C         1.0       0.24167499131317094           0.4720384691652906 0.7453397178107344 1.0000   
         C         C         1.0       0.23430588046872092           0.477168723374116  0.7163316591936025 1.0000   
         C         C         1.0       0.22066434685330108           0.5196890545711105 0.7058519664200397 1.0000   
         C         C         1.0       0.22513309871572967           0.5623439790357292 0.7234164233052206 1.0000   
         C         C         1.0       0.2328395233321635  0.5593181839764115  0.752809824562788  1.0000   
         C         C         1.0       0.23870385673266864           0.5125551482891882 0.76473853983798   1.0000   
         C         C         1.0       0.19914776655242314           0.5221525130235035 0.6744528796292519 1.0000   
         C         C         1.0       0.2946107709571726  0.5336483102576901  0.6174322083455323 1.0000   
         C         C         1.0       0.2774909922270174  0.49061643382270653           0.6188734019004694 1.0000   
         C         C         1.0       0.2496804742450858  0.4865878748039966  0.6382619497090886 1.0000   
         C         C         1.0       0.23323711384592555           0.5265276396601407 0.6528987280423555 1.0000   
         C         C         1.0       0.25125507184870566           0.5696377477603312 0.6496757288634627 1.0000   
         C         C         1.0       0.28150096501144045           0.573791588847313  0.63451883141928   1.0000   
         C         C         1.0       0.17206887112712307           0.5651698181961731 0.6728225912869594 1.0000   
         C         C         1.0       0.15070330679912297           0.5795658904964979 0.6972671593517217 1.0000   
         C         C         1.0       0.13232722016311177           0.6224088652753862 0.6964053315703933 1.0000   
         C         C         1.0       0.13252281540343136           0.6500631290280102 0.67152212808249   1.0000   
         C         C         1.0       0.15004224477172778           0.631510439392053  0.6469236422053757 1.0000   
         C         C         1.0       0.1692604550660086  0.5884640877380148  0.6474387046361482 1.0000   
         C         C         1.0       0.16749477028826076           0.4547486775045257 0.640258941329138  1.0000   
         C         C         1.0       0.1589325877404228  0.4056433587318345  0.6377543311394549 1.0000   
         C         C         1.0       0.14625508601241466           0.3807729451371756 0.661673184671288  1.0000   
         C         C         1.0       0.14776643383747995           0.4039574663753221 0.6900277304993317 1.0000   
         C         C         1.0       0.1602291719331062  0.4523347667502203  0.6925014560793027 1.0000   
         C         C         1.0       0.17540971376861808           0.4733314219496134 0.6676927455537627 1.0000   
         H         H         1.0       0.28796844705256525           0.4207259536904413 0.8022155051769155 1.0000   
         H         H         1.0       0.2862538252856374  0.5752486356089656  0.8007973992715439 1.0000   
         H         H         1.0       0.3488025461255624  0.5778658985900667  0.8112536325506787 1.0000   
         H         H         1.0       0.35183748556120026           0.4285341515703091 0.8171484384193191 1.0000   
         H         H         1.0       0.17418100106763545           0.5559135137947125 0.8058193582347252 1.0000   
         H         H         1.0       0.1627949447518754  0.624832515679536   0.8378202187078265 1.0000   
         H         H         1.0       0.2565243643450153  0.598462469566612   0.8837912245217079 1.0000   
         H         H         1.0       0.2671775826034286  0.5266750105292081  0.8524110975380009 1.0000   
         H         H         1.0       0.24863624733477832           0.4360942298809168 0.7547618918404532 1.0000   
         H         H         1.0       0.2348201149769005  0.4452067626344421  0.7019247815544737 1.0000   
         H         H         1.0       0.2151694532355091  0.5969403443745603  0.7164230793064799 1.0000   
         H         H         1.0       0.23219258534031692           0.5924532901315817 0.7663063716812747 1.0000   
         H         H         1.0       0.2860741315975436  0.453890310177102   0.6094502067702295 1.0000   
         H         H         1.0       0.23912218433646662           0.4515645718226906 0.6389481354810547 1.0000   
         H         H         1.0       0.24068864949230848           0.6011269088172075 0.6617658602086065 1.0000   
         H         H         1.0       0.29671174911606885           0.607483096781361  0.6330335300073942 1.0000   
         H         H         1.0       0.1555803826298452  0.5572486064731874  0.7171638919653591 1.0000   
         H         H         1.0       0.11941460855733035           0.6402705789365687 0.7147228337439003 1.0000   
         H         H         1.0       0.1511865597325091  0.6508469950314916  0.6272261991514491 1.0000   
         H         H         1.0       0.1827239797099989  0.5776560068382768  0.6266946468190208 1.0000   
         H         H         1.0       0.1735179197913015  0.4752163103135029  0.6207135102424638 1.0000   
         H         H         1.0       0.1596670785552183  0.387898229057562   0.6159904250198902 1.0000   
         H         H         1.0       0.1423296677484213  0.38590517440321814           0.711082269675843  1.0000   
         H         H         1.0       0.1608889101334373  0.4691281911210471  0.714885534884026  1.0000   
         C         C         1.0       0.13532704397800965           0.36954998117822146          0.972795903191086  1.0000   
         C         C         1.0       0.15431605798605272           0.4089153913121143 0.9835295325955429 1.0000   
         C         C         1.0       0.140704168768613   0.455142448393951   0.984361805123977  1.0000   
         C         C         1.0       0.10805067799769776           0.464381183442635  0.971583646428488  1.0000   
         C         C         1.0       0.089879722875241   0.4250363212695882  0.9614579143188628 1.0000   
         C         C         1.0       0.10274624018100639           0.3795093137194217 0.9611628107839298 1.0000   
         H         H         1.0       0.18166408836731288           0.4038084833698818 0.988509669073544  1.0000   
         H         H         1.0       0.15996937451657814           0.4819107495741643 0.9911993458581745 1.0000   
         H         H         1.0       0.06191490198849793           0.42890979384163075          0.9551184288202139 1.0000   
         H         H         1.0       0.08702377733551347           0.35224247994967983          0.9543163499443862 1.0000   
         C         C         1.0       0.06707499992686024           0.49781475413290305          0.9146864890494824 1.0000   
         C         C         1.0       0.06562439689322595           0.5253751471839131 0.9418745073231798 1.0000   
         C         C         1.0       0.03929179378648362           0.5591605467930317 0.9447290445948717 1.0000   
         C         C         1.0       0.015504643674635998          0.5665027199277776 0.9230036323777873 1.0000   
         C         C         1.0       0.016902966250359697          0.5380008113037228 0.8968268572097422 1.0000   
         C         C         1.0       0.04236601868404377           0.5060711279235237 0.8922837045934795 1.0000   
         C         C         1.0       0.09343418671892377           0.5192997877520324 0.9686293571249655 1.0000   
         C         C         1.0       0.12498999344308759           0.5547464836233712 0.9572944570366945 1.0000   
         C         C         1.0       0.12822868239052476           0.6039935986768598 0.9631873612074086 1.0000   
         C         C         1.0       0.1531820034481249  0.6329719641352882  0.952078959616503  1.0000   
         C         C         1.0       0.17691395007420446           0.612972515803586  0.9319049775854102 1.0000   
         C         C         1.0       0.17573131744399215           0.5624396424279516 0.9244636163337416 1.0000   
         C         C         1.0       0.14807516238089535           0.5373434786902623 0.9344829745351183 1.0000   
         C         C         1.0       0.04572842988758009           0.5089923779700929 0.01000860290379224          1.0000   
         C         C         1.0       0.03333393841715937           0.518356950128532  0.037518077424610434         1.0000   
         C         C         1.0       0.05009797422781494           0.5491364215474323 0.05785976920819929          1.0000   
         C         C         1.0       0.08322961713551044           0.5623678050382347 0.05082935144138112          1.0000   
         C         C         1.0       0.09585082243669561           0.5553753680275895 0.022099819458775594         1.0000   
         C         C         1.0       0.07777361706278164           0.5279022099028993 0.0009753747039020766        1.0000   
         C         C         1.0       0.02649824536547274           0.5708274380722475 0.08415742456249638          1.0000   
         C         C         1.0       0.46409685041989984           0.6234803308318412 0.9681819940270843 1.0000   
         C         C         1.0       0.4469666428398598  0.6106510312725029  0.9926288137984572 1.0000   
         C         C         1.0       0.4585476645513083  0.6230490510487923  0.019621271112153504         1.0000   
         C         C         1.0       0.49241155842282247           0.6382907634454594 0.024489477692860136         1.0000   
         C         C         1.0       0.004194591139295988          0.628161436892778  0.04498732859745558          1.0000   
         C         C         1.0       0.4956191772019234  0.647491050813871   0.9706848613705312 1.0000   
         C         C         1.0       0.04713817073449955           0.6135935008389743 0.10507523732329274          1.0000   
         C         C         1.0       0.07880072115985771           0.6030109900293085 0.11867201508271134          1.0000   
         C         C         1.0       0.09658062855329023           0.6407858166846834 0.13364791552934344          1.0000   
         C         C         1.0       0.08439455854438566           0.6862356067346497 0.13486737440261817          1.0000   
         C         C         1.0       0.05061602326734439           0.694780966281119  0.12528368012336707          1.0000   
         C         C         1.0       0.03203875176337912           0.6594813002071117 0.11022051902155343          1.0000   
         C         C         1.0       0.4604540539990386  0.6399163526634837  0.09217889286433871          1.0000   
         C         C         1.0       0.43203815549279573           0.6220071551663757 0.10583001727507417          1.0000   
         C         C         1.0       0.42971802879995014           0.5733939333672373 0.11109123163632917          1.0000   
         C         C         1.0       0.45613488387350937           0.5425765573444734 0.1005398210512138 1.0000   
         C         C         1.0       0.48256486635556206           0.560099865632666  0.08554082957005098          1.0000   
         C         C         1.0       0.48600490345445885           0.609226739952475  0.07954328423365209          1.0000   
         H         H         1.0       0.0882026733951087  0.47542184235039353           0.9081471770160577 1.0000   
         H         H         1.0       0.03577051340243709           0.5833307864557348 0.9642933207948755 1.0000   
         H         H         1.0       0.5314004058188001  0.5963097296458524  0.9023733797397502 1.0000   
         H         H         1.0       0.04763438417948107           0.4870967905068735 0.8714273556246156 1.0000   
         H         H         1.0       0.11042571186287332           0.6215949593254212 0.9772745136711366 1.0000   
         H         H         1.0       0.1530387274353189  0.6722040648966648  0.9581744142599871 1.0000   
         H         H         1.0       0.19269755873182973           0.5474215810809772 0.9081117691792973 1.0000   
         H         H         1.0       0.14884590077506218           0.49849485435324514          0.9268548884827933 1.0000   
         H         H         1.0       0.03094377963688366           0.48887659675193623          0.9950890517598806 1.0000   
         H         H         1.0       0.007716531213018075          0.5008790632816001 0.0401719457906784 1.0000   
         H         H         1.0       0.09949525574511399           0.5873306988215934 0.06266222731485008          1.0000   
         H         H         1.0       0.11862470357086939           0.5717538543751985 0.01458140532555019          1.0000   
         H         H         1.0       0.4215219711856152  0.5959486189819263  0.9911395985062472 1.0000   
         H         H         1.0       0.4416731487411438  0.6106744718841499  0.036881407211075246         1.0000   
         H         H         1.0       0.030158245468286052          0.642715443939773  0.042683093479836565         1.0000   
         H         H         1.0       0.5084132320717154  0.6564176662028086  0.9494956453610333 1.0000   
         H         H         1.0       0.08897796331853773           0.5662224430114223 0.11751933630097638          1.0000   
         H         H         1.0       0.12247084479381833           0.6280299662029023 0.1414098863629932 1.0000   
         H         H         1.0       0.5699821638359169  0.7753230073434855  0.06096355174243195          1.0000   
         H         H         1.0       0.5239497914238332  0.7243986973664095  0.0410857772197184 1.0000   
         H         H         1.0       0.4600239298625254  0.6772714578164059  0.08554985491180346          1.0000   
         H         H         1.0       0.41165838230853846           0.6438198127967821 0.11584722638923509          1.0000   
         H         H         1.0       0.45466754505240686           0.5026336744826541 0.10385112393713221          1.0000   
         H         H         1.0       0.04466988511239494           0.4729373067055452 0.08847525511297442          1.0000   
         C         C         1.0       0.4575704397968274  0.5096121641189311  0.9469860953892648 1.0000   
         C         C         1.0       0.48189859308466715           0.47445448737173734          0.9439912171450509 1.0000   
         C         C         1.0       0.47688151350482616           0.43133383431911654          0.9581303623216181 1.0000   
         C         C         1.0       0.44914211303769985           0.4230507596554966 0.9774717276312764 1.0000   
         C         C         1.0       0.42619044112305593           0.46271481086328614          0.9800969298281544 1.0000   
         C         C         1.0       0.42814088518491406           0.5010657954130634 0.9627429863800753 1.0000   
         H         H         1.0       0.5033524557276227  0.47616669542382095           0.9294774960850274 1.0000   
         H         H         1.0       0.4937579579677127  0.40169969213676154           0.9515727549046883 1.0000   
         H         H         1.0       0.40507952459097296           0.45971365293973887          0.9947089385198127 1.0000   
         H         H         1.0       0.40732818125594716           0.5279436324454359 0.9620401531952124 1.0000   
         C         C         1.0       0.45836341606140696           0.4120117141521904 0.04231885200627317          1.0000   
         C         C         1.0       0.4347759210455789  0.38237347542352074           0.027972406579908737         1.0000   
         C         C         1.0       0.4170437324230092  0.34846691448556505           0.044850552243902435         1.0000   
         C         C         1.0       0.4271703681763813  0.3378000127991098  0.07221452495920137          1.0000   
         C         C         1.0       0.45306344206115373           0.3662277517895561 0.08603797168018677          1.0000   
         C         C         1.0       0.4680870615477942  0.40423193740710617           0.07084236096699852          1.0000   
         C         C         1.0       0.4407504844646109  0.37331569291847966           0.9928693364567563 1.0000   
         C         C         1.0       0.470610970719214   0.3331448702137872  0.9943661600605821 1.0000   
         C         C         1.0       0.46141229790846644           0.28426767285794297          0.993778165434859  1.0000   
         C         C         1.0       0.4838002315306619  0.25335737614374043           0.007162170413212987         1.0000   
         C         C         1.0       0.5125189035769665  0.26815131743776693           0.022641653063327993         1.0000   
         C         C         1.0       0.5246383070548203  0.31286583020357606           0.019381657707147504         1.0000   
         C         C         1.0       0.505888463117238   0.34474296693566275           0.0035468342360871485        1.0000   
         C         C         1.0       0.37175283323095093           0.3728565457470756 0.9843571478464768 1.0000   
         C         C         1.0       0.3430602654280384  0.3634719656965989  0.965175642852824  1.0000   
         C         C         1.0       0.3478437351852083  0.34204757334987607           0.9365701416958853 1.0000   
         C         C         1.0       0.3824105817803967  0.3239408419845773  0.9315169518631344 1.0000   
         C         C         1.0       0.4090385764836531  0.3328191932896907  0.9496119454887926 1.0000   
         C         C         1.0       0.40509195493664485           0.35740692801952534          0.976306180449827  1.0000   
         C         C         1.0       0.3192900960198478  0.34825923877183435           0.9098040122609771 1.0000   
         C         C         1.0       0.20840923236623513           0.33006908417778147          0.9352869267947987 1.0000   
         C         C         1.0       0.21790048606777385           0.368801534361831  0.9191117360072368 1.0000   
         C         C         1.0       0.2535810736495881  0.37986780171382556           0.9142014593720331 1.0000   
         C         C         1.0       0.2801997111391265  0.34595886302179896           0.9210839168590432 1.0000   
         C         C         1.0       0.26949203983382725           0.30657024393093635          0.9365864719121424 1.0000   
         C         C         1.0       0.23497778453624618           0.29840019591271133          0.9441712352312351 1.0000   
         C         C         1.0       0.3195437633695718  0.3085010544377509  0.884651660896318  1.0000   
         C         C         1.0       0.3060168343936     0.32130125407921734           0.8570340173611245 1.0000   
         C         C         1.0       0.30967051270254337           0.2916059734620388 0.8329720258404443 1.0000   
         C         C         1.0       0.3276858029846681  0.24857397838291054           0.8349079283325725 1.0000   
         C         C         1.0       0.3359537240116517  0.23078997291572342           0.8622208022334827 1.0000   
         C         C         1.0       0.3346341784114575  0.26161749160850795           0.8862807523763068 1.0000   
         C         C         1.0       0.32379625982492277           0.44723499063877   0.9016115516634452 1.0000   
         C         C         1.0       0.34262197326028426           0.48679802550775353          0.8923147278923168 1.0000   
         C         C         1.0       0.37093216247651617           0.4785501468769513 0.8752073909717514 1.0000   
         C         C         1.0       0.38575670249921923           0.4330780229518895 0.8724213941386538 1.0000   
         C         C         1.0       0.36743913110373244           0.393177287897727  0.8799665326290165 1.0000   
         C         C         1.0       0.3354644577597355  0.3988945161845925  0.8962350611003562 1.0000   
         H         H         1.0       0.4715363114641964  0.44226506016972844           0.031957303095158096         1.0000   
         H         H         1.0       0.4020594525965308  0.32057457902136605           0.0329002855806646 1.0000   
         H         H         1.0       0.4165669386707165  0.30345643124022337           0.08215005505673946          1.0000   
         H         H         1.0       0.4866988805276148  0.42985105625524134           0.08270040033024811          1.0000   
         H         H         1.0       0.43587851017271917           0.26912885623298755          0.9889249546461548 1.0000   
         H         H         1.0       0.4748699349990164  0.2164800919680016  0.010099637483187873         1.0000   
         H         H         1.0       0.547580736818888   0.323978440463646   0.030592902175738956         1.0000   
         H         H         1.0       0.5123567112125968  0.3843754092809151  0.0023242163022494378        1.0000   
         H         H         1.0       0.3648836813450906  0.3932741572113743  0.0049335099511294 1.0000   
         H         H         1.0       0.31703225440176436           0.3744591445038062 0.9722719834124217 1.0000   
         H         H         1.0       0.38941573831465753           0.31043813295091416          0.9086586249050015 1.0000   
         H         H         1.0       0.43496269124754994           0.3254597873294853 0.9420854103716025 1.0000   
         H         H         1.0       0.1978297177299524  0.3933735414899118  0.9119512878303218 1.0000   
         H         H         1.0       0.2556508650701976  0.4140283683330246  0.9027293466266525 1.0000   
         H         H         1.0       0.28888741584383654           0.2789493967897458 0.9405457181909997 1.0000   
         H         H         1.0       0.2283762403712665  0.263406310607325   0.9550163236934203 1.0000   
         H         H         1.0       0.30015452891074657           0.35879518556067086          0.8517791953021088 1.0000   
         H         H         1.0       0.3043571822898931  0.3072304283270965  0.81107079295676   1.0000   
         H         H         1.0       0.34689482675461936           0.1973770174642243 0.8659732590213934 1.0000   
         H         H         1.0       0.34314994784180924           0.24573102200360564          0.9067038873764318 1.0000   
         H         H         1.0       0.3009847867724976  0.4519830092656613  0.9152619690754026 1.0000   
         H         H         1.0       0.3325629032341498  0.5231683774367623  0.8969677057148617 1.0000   
         H         H         1.0       0.4130219823685446  0.42437993402627044           0.8643345182095589 1.0000   
         H         H         1.0       0.3780977434243589  0.3579665478110667  0.8742735662767662 1.0000   
         C         C         1.0       0.36051640714680006           0.48138182013704406          0.6442766787417986 1.0000   
         C         C         1.0       0.34404432793988965           0.4840103226198185 0.6715963080942894 1.0000   
         C         C         1.0       0.340286644903155   0.4412645783131149  0.6857839844115017 1.0000   
         C         C         1.0       0.3556545609392248  0.3981526711562568  0.6765627378431023 1.0000   
         C         C         1.0       0.3736006527428691  0.39642236787782875           0.6494653285422592 1.0000   
         C         C         1.0       0.37532012628130795           0.4381319798582409 0.6331905456911856 1.0000   
         H         H         1.0       0.33570194420085137           0.5192582171491412 0.6806687368614139 1.0000   
         H         H         1.0       0.32751188962734795           0.4416672725426936 0.7058218970046024 1.0000   
         H         H         1.0       0.3884526938486321  0.3657545141130443  0.6432065674891386 1.0000   
         H         H         1.0       0.38957095333776276           0.43817524369082667          0.6126715934879767 1.0000   
         C         C         1.0       0.3339194193749277  0.28899606953355844           0.6513943531123446 1.0000   
         C         C         1.0       0.3492726422707486  0.29725208744700965           0.6791145180297795 1.0000   
         C         C         1.0       0.3528461627572198  0.25687611813005723           0.6966006210984469 1.0000   
         C         C         1.0       0.3423398509637488  0.21189012075126595           0.6862226392665631 1.0000   
         C         C         1.0       0.32690219272621895           0.20445623594051412          0.6579142921348854 1.0000   
         C         C         1.0       0.31979701179421494           0.24469776250631983          0.6430202860887173 1.0000   
         C         C         1.0       0.3512831959232393  0.3489140112252207  0.695614315427958  1.0000   
         C         C         1.0       0.3136775253096592  0.3505898109678588  0.713496622466401  1.0000   
         C         C         1.0       0.3085409369089     0.3310415289329663  0.7406275463217824 1.0000   
         C         C         1.0       0.2747793951718821  0.31897267264946244           0.7501405107824021 1.0000   
         C         C         1.0       0.24733356473716525           0.32476701823634163          0.7318546424605558 1.0000   
         C         C         1.0       0.2514032813257301  0.3478536332889333  0.7053752001621634 1.0000   
         C         C         1.0       0.2838623080899787  0.36320274873283453           0.6976671291776291 1.0000   
         C         C         1.0       0.4191633214756486  0.3311632522503572  0.7042499468992673 1.0000   
         C         C         1.0       0.4487089498611991  0.3328990975007631  0.7222994705564885 1.0000   
         C         C         1.0       0.44868488322173017           0.36082247273457857          0.7487679787360232 1.0000   
         C         C         1.0       0.41891293746831915           0.38839006835063167          0.7545414543506141 1.0000   
         C         C         1.0       0.3902653174648641  0.38468091941225696           0.7374778689006812 1.0000   
         C         C         1.0       0.38744442418713687           0.35398693025056943          0.713679451930629  1.0000   
         C         C         1.0       0.47697607423131205           0.3540183323225568 0.7738105669285453 1.0000   
         C         C         1.0       0.09017876169111812           0.30664840816901084          0.7863201471328707 1.0000   
         C         C         1.0       0.07615174762305013           0.3254102305473689 0.7605473103274306 1.0000   
         C         C         1.0       0.5333033747346703  0.36594385079531583           0.7436510309193565 1.0000   
         C         C         1.0       0.5171511050260511  0.33856196167039065           0.7648489011965633 1.0000   
         C         C         1.0       0.5371757271623004  0.3058765671066041  0.7805356220032915 1.0000   
         C         C         1.0       0.5717366370972585  0.30421447213432673           0.7768795271472617 1.0000   
         C         C         1.0       0.45861715073247844           0.3104068244154424 0.7899340649095647 1.0000   
         C         C         1.0       0.43337021882414767           0.3179480123090219 0.8117438491869253 1.0000   
         C         C         1.0       0.4075552166731054  0.2869653215217873  0.8172276009833158 1.0000   
         C         C         1.0       0.4052264493312445  0.2440544470126988  0.8009924041737652 1.0000   
         C         C         1.0       0.43235531534225174           0.2312611873057249 0.7822541642230588 1.0000   
         C         C         1.0       0.4583293057000622  0.26316698734021515           0.7769691676121608 1.0000   
         C         C         1.0       0.4980790196042043  0.39709485694613456           0.8222426016196062 1.0000   
         C         C         1.0       0.5062222528696724  0.43861340978074825           0.8383687207373234 1.0000   
         C         C         1.0       0.5042084837457156  0.4832399440273788  0.8260805587700053 1.0000   
         C         C         1.0       0.49417459873146574           0.48882027766512387          0.7975719308665669 1.0000   
         C         C         1.0       0.486216913679101   0.44745412556311676           0.78123228313722   1.0000   
         C         C         1.0       0.4869865918616664  0.40100126995810337           0.792678734548445  1.0000   
         H         H         1.0       0.3311915288309752  0.3207250294818534  0.6373377781881681 1.0000   
         H         H         1.0       0.35587033167517734           0.2626550042560216 0.7207175718038636 1.0000   
         H         H         1.0       0.3433790748174581  0.1801569686022088  0.6983839518533274 1.0000   
         H         H         1.0       0.309829509151101   0.23913692361316086           0.6207772084374243 1.0000   
         H         H         1.0       0.33193228288470217           0.3239686798506573 0.7546599854657959 1.0000   
         H         H         1.0       0.2712582361151663  0.30206112241079114           0.7719461380072181 1.0000   
         H         H         1.0       0.22995485299678808           0.357760614364035  0.6912018366184782 1.0000   
         H         H         1.0       0.28898360431453296           0.3753345561575787 0.6757226340530371 1.0000   
         H         H         1.0       0.41973112639383015           0.31122072041679383          0.6838900474759302 1.0000   
         H         H         1.0       0.47091318266089394           0.3083598125458364 0.7194609716874545 1.0000   
         H         H         1.0       0.41654712553391604           0.4049311598970528 0.7763655180871617 1.0000   
         H         H         1.0       0.3687755272639498  0.4049432638765283  0.7447324508226024 1.0000   
         H         H         1.0       0.09052534903210947           0.3434552295267496 0.7431964255423119 1.0000   
         H         H         1.0       0.5191161256199746  0.39550890495986035           0.7337527769874646 1.0000   
         H         H         1.0       0.5248605030988797  0.28383339005476965           0.7964951316408692 1.0000   
         H         H         1.0       0.5855158873831054  0.2725636749107114  0.7859983838582579 1.0000   
         H         H         1.0       0.43167041751568974           0.35242383332054744          0.8237761822313623 1.0000   
         H         H         1.0       0.3880871754233949  0.2977420430769501  0.8335911314143134 1.0000   
         H         H         1.0       0.43483925471090434           0.19410704479306187          0.772878795010792  1.0000   
         H         H         1.0       0.47928787772528625           0.2541695470460194 0.7595097701706051 1.0000   
         H         H         1.0       0.49470294085035654           0.3634589148222849 0.8343374381354813 1.0000   
         H         H         1.0       0.5089637772480614  0.43287969344904553           0.8623102741199947 1.0000   
         H         H         1.0       0.49351502745161824           0.5230298263404156 0.7864856461394503 1.0000   
         H         H         1.0       0.4815963332626612  0.4479293026487198  0.7580201035348921 1.0000   
         C         C         1.0       0.384361172134093   0.04480952292464413           0.724190706041974  1.0000   
         C         C         1.0       0.3746272238738998  0.08840323844925457           0.7364990795754155 1.0000   
         C         C         1.0       0.3413620801189941  0.09695070086814495           0.7456479269558759 1.0000   
         C         C         1.0       0.3156515853840451  0.06085003985022697           0.7433332311021875 1.0000   
         C         C         1.0       0.32607370357906956           0.015052412258177883         0.7316076202840025 1.0000   
         C         C         1.0       0.35929885602302897           0.007556834731346829         0.7216297690831756 1.0000   
         H         H         1.0       0.39181723375097266           0.11842902024308333          0.7404335094565965 1.0000   
         H         H         1.0       0.3335276257196748  0.1303727557314816  0.7574814693968445 1.0000   
         H         H         1.0       0.30797816049202476           0.9832862305969406 0.7321760982523612 1.0000   
         H         H         1.0       0.3670308939601944  0.9700985168375438  0.7170580740487161 1.0000   
         C         C         1.0       0.24397854138013136           0.03984821132859939          0.7108928865600075 1.0000   
         C         C         1.0       0.24967195026859115           0.0368712725123721 0.7422218961809426 1.0000   
         C         C         1.0       0.23391016711440865           0.9966542918249914 0.7547631894525917 1.0000   
         C         C         1.0       0.22335653592921287           0.9574160655582452 0.7390163245872199 1.0000   
         C         C         1.0       0.22595874755476153           0.9570745525289219 0.7092491896765228 1.0000   
         C         C         1.0       0.23091084323077452           0.9996928192099352 0.6953896660065404 1.0000   
         C         C         1.0       0.2772669551857098  0.07195177595356728           0.7577017355416074 1.0000   
         C         C         1.0       0.25980862564950374           0.12457103934475783          0.7509223786606691 1.0000   
         C         C         1.0       0.22774088073566554           0.13498804708955878          0.7656159221053109 1.0000   
         C         C         1.0       0.21199290842279353           0.17856519446734603          0.7614396005372963 1.0000   
         C         C         1.0       0.22333285792193286           0.21097011707683216          0.7403162466788916 1.0000   
         C         C         1.0       0.2537268325989226  0.1974904841688718  0.724305682054312  1.0000   
         C         C         1.0       0.2701325481456531  0.1549810604592235  0.7288970964669954 1.0000   
         C         C         1.0       0.2963663759785149  0.023750877988822694         0.8046576638412797 1.0000   
         C         C         1.0       0.3130253668105715  0.023104181496845788         0.832231938837189  1.0000   
         C         C         1.0       0.31618547543471875           0.06363180235490207          0.8487601528230433 1.0000   
         C         C         1.0       0.30360536418112394           0.10640241520554738          0.8364828097423187 1.0000   
         C         C         1.0       0.2869763195543481  0.10678273775726603           0.8112999081889511 1.0000   
         C         C         1.0       0.28524187275395724           0.06560780616530115          0.7929773286146148 1.0000   
         C         C         1.0       0.3250270593617138  0.06312276964173291           0.8840211928473091 1.0000   
         C         C         1.0       0.22642783019012744           0.134998787698883  0.9045949941532646 1.0000   
         C         C         1.0       0.22761384629334638           0.08617579096311623          0.9036287865281291 1.0000   
         C         C         1.0       0.2583184945812787  0.06281764934194078           0.8990792168107937 1.0000   
         C         C         1.0       0.28973993174331064           0.08755490028165291          0.8984064953673095 1.0000   
         C         C         1.0       0.28842601029335707           0.13789223699778227          0.903149976939851  1.0000   
         C         C         1.0       0.25697604339451624           0.1612817771936599 0.9054414114481061 1.0000   
         C         C         1.0       0.3591578376558622  0.09602960469837907           0.8917104062104427 1.0000   
         C         C         1.0       0.3821967360068144  0.1124273496554763  0.8698127007810699 1.0000   
         C         C         1.0       0.4085768967898014  0.1440362520730397  0.8770946862806702 1.0000   
         C         C         1.0       0.41120614103980146           0.16400123228928645          0.9049137807537481 1.0000   
         C         C         1.0       0.39132478250740915           0.146520653913948  0.9270602191203287 1.0000   
         C         C         1.0       0.36507242286506897           0.1124010130620149 0.9204173344810234 1.0000   
         C         C         1.0       0.3260124744329714  0.9896867665653426  0.9195585521143889 1.0000   
         C         C         1.0       0.344056537863923   0.9572030060335255  0.9363282432990729 1.0000   
         C         C         1.0       0.3781977361683228  0.9455138377256529  0.9286274012873077 1.0000   
         C         C         1.0       0.3907487214703164  0.9622537384660548  0.9022969155480688 1.0000   
         C         C         1.0       0.37217531469364323           0.9936635002406813 0.8858218901956801 1.0000   
         C         C         1.0       0.3394782156458279  0.012025820350851202         0.8950066632285095 1.0000   
         H         H         1.0       0.25294327923326054           0.07258018199819016          0.6986282239549308 1.0000   
         H         H         1.0       0.23328188103011085           0.9930012472400062 0.77916815852144   1.0000   
         H         H         1.0       0.22098739068424408           0.9234284356519371 0.7506701480668507 1.0000   
         H         H         1.0       0.2272972808904883  0.002705664559546017         0.67171202817643   1.0000   
         H         H         1.0       0.21430071564557818           0.11201688263054103          0.7811961939307033 1.0000   
         H         H         1.0       0.1878442442577773  0.1870861160218577  0.7725527709704622 1.0000   
         H         H         1.0       0.2641331047514649  0.2254763353998913  0.7071012001217646 1.0000   
         H         H         1.0       0.29137475677547076           0.14458125727900079          0.7143471417877812 1.0000   
         H         H         1.0       0.29485365223791155           0.9874953145037959 0.7929903547451909 1.0000   
         H         H         1.0       0.31985021104192657           0.9916414221633012 0.8417285177017342 1.0000   
         H         H         1.0       0.3071444847442823  0.14253474911351174           0.8459695833809889 1.0000   
         H         H         1.0       0.27737082526914564           0.14088402971803504          0.8049015653411401 1.0000   
         H         H         1.0       0.20349181438992014           0.06894023413544637          0.9049658049487269 1.0000   
         H         H         1.0       0.25613723025829976           0.024581583654818218         0.8925772290679862 1.0000   
         H         H         1.0       0.3103990643941818  0.16178168984489363           0.9022924904885187 1.0000   
         H         H         1.0       0.255509002735654   0.20000336280948994           0.9085955759570152 1.0000   
         H         H         1.0       0.37886482776019753           0.09775378056254835          0.8467558036128491 1.0000   
         H         H         1.0       0.42429809226745563           0.1563653678099808 0.8593235621284772 1.0000   
         H         H         1.0       0.39355077309157177           0.1611051685159008 0.9509857770668537 1.0000   
         H         H         1.0       0.3483164990886323  0.09957834800150978           0.9386120347925856 1.0000   
         H         H         1.0       0.30104165585223386           0.0033008047512590455        0.9272276148664702 1.0000   
         H         H         1.0       0.3342756408914955  0.9446194867421626  0.9572885517952082 1.0000   
         H         H         1.0       0.41684367417536716           0.9515996786820439 0.8935943199928168 1.0000   
         H         H         1.0       0.383161921211676   0.009821700451843274         0.8651029602051373 1.0000   
         C         C         1.0       0.4063236032766319  0.9235727714665686  0.08674586475741482          1.0000   
         C         C         1.0       0.4028541934340811  0.9653787557435155  0.10381462304712816          1.0000   
         C         C         1.0       0.42808569761972887           0.0010417253575667473        0.10258009972994235          1.0000   
         C         C         1.0       0.46000248691030887           0.9918866934814948 0.08812562196050856          1.0000   
         C         C         1.0       0.4642784281295443  0.9467102121672384  0.07419215303248021          1.0000   
         C         C         1.0       0.43745859418875516           0.9145944019399835 0.07331105803026497          1.0000   
         H         H         1.0       0.37922706855128824           0.974215509777236  0.11744211128236359          1.0000   
         H         H         1.0       0.4261294813206276  0.03778293900822538           0.11265182512151205          1.0000   
         H         H         1.0       0.4885862174393718  0.9307114151373207  0.06499993215191968          1.0000   
         H         H         1.0       0.44305908452535786           0.8837197589589866 0.060409222511959716         1.0000   
         C         C         1.0       0.5064581955517335  0.017236046112635073         0.1484384171951505 1.0000   
         C         C         1.0       0.5131010575662276  0.001407451873054244         0.11910766550091785          1.0000   
         C         C         1.0       0.5338506706984028  0.960850232919529   0.11457104468398872          1.0000   
         C         C         1.0       0.5433316267791874  0.9332678632882566  0.13803888472575668          1.0000   
         C         C         1.0       0.5373714563236941  0.9495882338680003  0.1661905678465294 1.0000   
         C         C         1.0       0.5222519659414511  0.9954025912469938  0.1708560316684092 1.0000   
         C         C         1.0       0.49482375333402606           0.02619066208538623          0.09144459924377131          1.0000   
         C         C         1.0       0.49409540181825645           0.0849254569620328 0.09444441142339682          1.0000   
         C         C         1.0       0.46727082723878305           0.11260133690693075          0.08363002229088747          1.0000   
         C         C         1.0       0.4689278418249452  0.1613957989979438  0.08082045781519152          1.0000   
         C         C         1.0       0.5001774373123685  0.18539322087133295           0.08749029848862681          1.0000   
         C         C         1.0       0.5278977327073702  0.15930803506100977           0.09869260860889852          1.0000   
         C         C         1.0       0.5250133170131637  0.10959667802616169           0.10349853325393847          1.0000   
         C         C         1.0       0.5506103427664184  0.02158394065549829           0.05533467683390825          1.0000   
         C         C         1.0       0.5638796703305018  0.029840639541327763         0.02800977283260586          1.0000   
         C         C         1.0       0.5431365112305516  0.047302169094506574         0.006130651486713434         1.0000   
         C         C         1.0       0.5072123835878877  0.043419999539276555         0.010240607939639101         1.0000   
         C         C         1.0       0.49320717602888997           0.0312639663420442 0.03637427796662629          1.0000   
         C         C         1.0       0.5142136330850857  0.025813212605794833         0.060165633953814135         1.0000   
         C         C         1.0       0.5576851185377909  0.06213956319593783           0.9740043831436195 1.0000   
         C         C         1.0       0.1412753812761735  0.15194564854610162           0.9731139708849417 1.0000   
         C         C         1.0       0.11062849374923485           0.17261579446057967          0.9837335271823944 1.0000   
         C         C         1.0       0.5904671504390572  0.13398414061195063           0.00120875345468896          1.0000   
         C         C         1.0       0.5919745610037822  0.09672416503041759           0.9803450415628951 1.0000   
         C         C         1.0       0.10695935160275806           0.08521798593263519          0.9533271377639294 1.0000   
         C         C         1.0       0.13829872811156335           0.10784315067767032          0.9579449116801315 1.0000   
         C         C         1.0       0.5358415391536759  0.10042717066323696           0.9554647079253146 1.0000   
         C         C         1.0       0.5101986283612315  0.12974393554485938           0.9683447810996741 1.0000   
         C         C         1.0       0.48724388373570654           0.1556866335207855 0.9517050170016587 1.0000   
         C         C         1.0       0.4950866299591766  0.16331875332152296           0.9229503002965038 1.0000   
         C         C         1.0       0.5225898266591821  0.13806064852036004           0.9091058264314779 1.0000   
         C         C         1.0       0.5415940552958917  0.105443973511183   0.9247000248581267 1.0000   
         C         C         1.0       0.526528540866569   0.9947908009880095  0.9440532023839826 1.0000   
         C         C         1.0       0.5221192437726008  0.9467772342859432  0.93523332080647   1.0000   
         C         C         1.0       0.5512418259601303  0.9167916833557695  0.9317930398818595 1.0000   
         C         C         1.0       0.5813762571294816  0.9295615904252681  0.9466285998036618 1.0000   
         C         C         1.0       0.5853772746741447  0.976931640222468   0.9593420047409114 1.0000   
         C         C         1.0       0.5579057234847254  0.01031078301399413           0.9572187334733816 1.0000   
         H         H         1.0       0.49242781767063254           0.053256394276858465         0.15167238138840633          1.0000   
         H         H         1.0       0.5358558885087266  0.9423930295246422  0.0931563965728111 1.0000   
         H         H         1.0       0.5556242855578578  0.8959300858414947  0.13543717038827363          1.0000   
         H         H         1.0       0.5167709030172467  0.006249342725221041         0.1929768436516694 1.0000   
         H         H         1.0       0.44443383228608707           0.09558725450289152          0.07226489263569198          1.0000   
         H         H         1.0       0.44812105085348575           0.1759348464171366 0.06790539837411115          1.0000   
         H         H         1.0       0.5524711125307651  0.1798296070052885  0.10245155684170933          1.0000   
         H         H         1.0       0.5490301748962225  0.09134901458143374           0.10923995510390161          1.0000   
         H         H         1.0       0.5697369141064853  0.018398078875173196         0.07337928193781051          1.0000   
         H         H         1.0       0.5922953518746539  0.023122901617183445         0.024518540055133542         1.0000   
         H         H         1.0       0.48902512318150493           0.05175534391943937          0.992723822589649  1.0000   
         H         H         1.0       0.4650995583335047  0.030522612359585866         0.03629375794574452          1.0000   
         H         H         1.0       0.10821578587163305           0.20634274056017987          0.9953278203010386 1.0000   
         H         H         1.0       0.5657514080573226  0.13745398836173017           0.01243271054592987          1.0000   
         H         H         1.0       0.10639348187580493           0.04965656942713803          0.9410263116597435 1.0000   
         H         H         1.0       0.1607244333177637  0.08906398164129287           0.9487539386401781 1.0000   
         H         H         1.0       0.5102547345616981  0.13119414600517895           0.99235776145101   1.0000   
         H         H         1.0       0.46295381853138323           0.17252356887406584          0.9605862522395592 1.0000   
         H         H         1.0       0.5274251099895901  0.14732777827788412           0.8856698600650885 1.0000   
         H         H         1.0       0.561984266775874   0.08609816651525026           0.9153373404648488 1.0000   
         H         H         1.0       0.5044745229274413  0.02092727123023108           0.9407521366508957 1.0000   
         H         H         1.0       0.4957679891228031  0.9372002660402485  0.9273306142975196 1.0000   
         H         H         1.0       0.6019973835395139  0.9027556819570335  0.9473661234445404 1.0000   
         H         H         1.0       0.6101373042257173  0.9796310088146909  0.9702502667161998 1.0000   
         C         C         1.0       0.20989012615172542           0.127970557022689  0.019461348692575653         1.0000   
         C         C         1.0       0.19417054593995722           0.08351850829863627          0.01648822122648652          1.0000   
         C         C         1.0       0.21415634094344863           0.04056126554921802          0.018075645076370606         1.0000   
         C         C         1.0       0.24991715598551734           0.04136857308999442          0.025228251898041343         1.0000   
         C         C         1.0       0.2625216417588519  0.08650159315764205           0.031543469283171977         1.0000   
         C         C         1.0       0.24356160630437276           0.12902916965158298          0.025855693281221503         1.0000   
         H         H         1.0       0.1664754950000223  0.07791696284117955           0.01271898373035496          1.0000   
         H         H         1.0       0.19833552788482953           0.00821922486354687          0.014933616610326883         1.0000   
         H         H         1.0       0.2899027657617899  0.09328660979252157           0.038354905716786014         1.0000   
         H         H         1.0       0.257134383574296   0.16300414376620986           0.025939098771259772         1.0000   
         C         C         1.0       0.32850179264330887           0.03415947542566222          0.0016979760272735067        1.0000   
         C         C         1.0       0.31352598263568565           0.9969405659976279 0.01792819047117944          1.0000   
         C         C         1.0       0.33624910649412193           0.9604157835444611 0.027725481242450334         1.0000   
         C         C         1.0       0.3686654872792172  0.9548800066763468  0.01581878289640093          1.0000   
         C         C         1.0       0.38066491414385295           0.9887553591129393 0.9965520506720458 1.0000   
         C         C         1.0       0.3631455992460109  0.030582279876188778         0.9918889357101099 1.0000   
         C         C         1.0       0.272189702925798   0.9928889656694404  0.02207738287709482          1.0000   
         C         C         1.0       0.2631535296304107  0.9585631844787045  0.9939867399969796 1.0000   
         C         C         1.0       0.2746299558572119  0.9103016626776717  0.9930895384489808 1.0000   
         C         C         1.0       0.2695456191667816  0.8805886795642996  0.9689109623288545 1.0000   
         C         C         1.0       0.2581057502690373  0.8995884668760173  0.9429993605477609 1.0000   
         C         C         1.0       0.2495644185853837  0.9480947801259226  0.9423569849561226 1.0000   
         C         C         1.0       0.2507215325825747  0.9769029467639903  0.9677942030392014 1.0000   
         C         C         1.0       0.2767270189869803  0.9838975139435076  0.07910798564095245          1.0000   
         C         C         1.0       0.2661469701688266  0.9646539546123838  0.10441395846784912          1.0000   
         C         C         1.0       0.23834981392729138           0.9318817848909066 0.10664612415177793          1.0000   
         C         C         1.0       0.21971000937555354           0.9211522168538846 0.08074235764722903          1.0000   
         C         C         1.0       0.23072845240758666           0.9406031939775638 0.0551806653214435 1.0000   
         C         C         1.0       0.2597606734718379  0.9700388550812656  0.052893843444611566         1.0000   
         C         C         1.0       0.23372549347454155           0.906064078996808  0.13817151612214698          1.0000   
         C         C         1.0       0.33792182313348107           0.8481116799262376 0.12252968973297838          1.0000   
         C         C         1.0       0.33183531103996416           0.8798502801353517 0.14688036247021483          1.0000   
         C         C         1.0       0.29971563605107254           0.8921514431798951 0.15539773730587117          1.0000   
         C         C         1.0       0.2707671457465105  0.8769773115010583  0.1380933659116249 1.0000   
         C         C         1.0       0.2776998520662017  0.8429422193173792  0.11522503693364204          1.0000   
         C         C         1.0       0.3114036317217835  0.8275136558993204  0.10764658138041422          1.0000   
         C         C         1.0       0.20161548032212145           0.8682002598453339 0.13829174640956646          1.0000   
         C         C         1.0       0.16687833019460416           0.8823292119530189 0.13278427668835496          1.0000   
         C         C         1.0       0.13944140983380307           0.8503201051339433 0.12806676386087407          1.0000   
         C         C         1.0       0.14583194953922413           0.8009736722792434 0.13153911911276422          1.0000   
         C         C         1.0       0.17726322212871842           0.7880569937159693 0.1425628358501426 1.0000   
         C         C         1.0       0.20476454409111697           0.8209003224798102 0.14579577843384395          1.0000   
         C         C         1.0       0.23057996023934582           0.9292681544975748 0.19315545128903994          1.0000   
         C         C         1.0       0.2250227565345934  0.9598981896122396  0.21759556910068775          1.0000   
         C         C         1.0       0.21728918982001608           0.008038427225597777         0.2136093616691567 1.0000   
         C         C         1.0       0.21466897107159053           0.024551762328979043         0.18554404443616282          1.0000   
         C         C         1.0       0.21726898607619968           0.9926015742640941 0.16052962805093338          1.0000   
         C         C         1.0       0.22783691773674122           0.9455367773525024 0.16401407950283478          1.0000   
         H         H         1.0       0.3094395316416376  0.062465740450392104         0.994145413913536  1.0000   
         H         H         1.0       0.3237237761760587  0.9315476572090353  0.03798565041253665          1.0000   
         H         H         1.0       0.38482092344052005           0.9204649456049941 0.019925419189954274         1.0000   
         H         H         1.0       0.3724783578034907  0.05409967484323941           0.9753493854252782 1.0000   
         H         H         1.0       0.28537680891686346           0.8953952343432757 0.012267051115428806         1.0000   
         H         H         1.0       0.27215820111101274           0.8409055677685949 0.9687316965513124 1.0000   
         H         H         1.0       0.23866945221327465           0.9615985337600549 0.9208839769568394 1.0000   
         H         H         1.0       0.23888673949413616           0.01042363645772193          0.9662674060494442 1.0000   
         H         H         1.0       0.2987880780731563  0.009270783782860725         0.08065204283393346          1.0000   
         H         H         1.0       0.278606179054336   0.9747411532238239  0.1253972294363674 1.0000   
         H         H         1.0       0.2006219430957092  0.894669641365488   0.0789978399618032 1.0000   
         H         H         1.0       0.21646477274656828           0.9285537008459409 0.034999651846018276         1.0000   
         H         H         1.0       0.3539011641325363  0.8890718275848701  0.1597750088853222 1.0000   
         H         H         1.0       0.29608858625936346           0.9177765211497031 0.17404732398476352          1.0000   
         H         H         1.0       0.25537819052947996           0.83560242221273   0.0999221566984024 1.0000   
         H         H         1.0       0.3182733030282066  0.8138692081888746  0.08536760205552195          1.0000   
         H         H         1.0       0.15936432234059938           0.9215459588698551 0.13007401163202809          1.0000   
         H         H         1.0       0.11318795922656279           0.8671193363901605 0.12407388602637563          1.0000   
         H         H         1.0       0.18408932541140324           0.7490054958334882 0.14224002976411596          1.0000   
         H         H         1.0       0.22876528269994376           0.8035003578282526 0.15281798287094406          1.0000   
         H         H         1.0       0.23791735224509356           0.8918079116926656 0.1984114336302071 1.0000   
         H         H         1.0       0.22727290427178204           0.9474837691072352 0.24046495497205714          1.0000   
         H         H         1.0       0.20990954881247528           0.06291695784333284          0.18233975231218966          1.0000   
         H         H         1.0       0.21500896887151041           0.00883341188432496          0.13806806977591968          1.0000   
         C         C         1.0       0.16405197205182054           0.1185945063687166 0.8590263058897938 1.0000   
         C         C         1.0       0.13407004652912577           0.09352576491477338          0.869363173746015  1.0000   
         C         C         1.0       0.12744740589973433           0.04676492958784362          0.8595479741577888 1.0000   
         C         C         1.0       0.14655508584154772           0.024023057328530495         0.8367719683569909 1.0000   
         C         C         1.0       0.1747573935623891  0.05149689734222784           0.8257148225125714 1.0000   
         C         C         1.0       0.18356237233206016           0.096129410035251  0.8390012666813749 1.0000   
         H         H         1.0       0.11923189656917188           0.10644619930220123          0.8892499635067259 1.0000   
         H         H         1.0       0.10831454197374954           0.025268825657335237         0.8719122460479753 1.0000   
         H         H         1.0       0.1895018398580395  0.03050612334971503           0.8084679860693382 1.0000   
         H         H         1.0       0.2074524784387036  0.11030884771300786           0.830618244475398  1.0000   
         C         C         1.0       0.07277176288859437           0.9731932369179938 0.8331615696986647 1.0000   
         C         C         1.0       0.10446949776106682           0.945960937616351  0.8367293736928253 1.0000   
         C         C         1.0       0.1012093666008541  0.8978787624999418  0.8425439259906605 1.0000   
         C         C         1.0       0.06879278538555465           0.8800637403446187 0.8521346017705463 1.0000   
         C         C         1.0       0.5490579823977819  0.8844306008768122  0.8654025456605531 1.0000   
         C         C         1.0       0.5444034987724783  0.9326627023689701  0.8572870101717477 1.0000   
         C         C         1.0       0.1393134638994603  0.9696385428074004  0.8258067930597492 1.0000   
         C         C         1.0       0.17303731109504863           0.9460435342337485 0.8400094797871239 1.0000   
         C         C         1.0       0.20250556146849238           0.9320398154362443 0.8239584510120417 1.0000   
         C         C         1.0       0.23094574120182607           0.9128250381406798 0.837464569010915  1.0000   
         C         C         1.0       0.22943901147874102           0.9019140403295214 0.8684178576791236 1.0000   
         C         C         1.0       0.19947775929784087           0.9139702874424372 0.8837757626527397 1.0000   
         C         C         1.0       0.1722374797785833  0.9367934773727677  0.8703306599135093 1.0000   
         C         C         1.0       0.1273318994941461  0.9991937871877423  0.7729918672371812 1.0000   
         C         C         1.0       0.1159103628191071  0.9918838281673418  0.7449897426588796 1.0000   
         C         C         1.0       0.11542268264550537           0.947612416387018  0.730156499310254  1.0000   
         C         C         1.0       0.12489714389296329           0.9089478631879755 0.7479597199928518 1.0000   
         C         C         1.0       0.13870486294562423           0.9165109458633981 0.7772383059116595 1.0000   
         C         C         1.0       0.1370953878298009  0.9622358361548703  0.7906384102256345 1.0000   
         C         C         1.0       0.09600924346874658           0.9384588352938776 0.6997406534249879 1.0000   
         C         C         1.0       0.47864938626447084           0.9844972268869696 0.7343126655452505 1.0000   
         C         C         1.0       0.5009301644691683  0.004638834674639769         0.7142894724804462 1.0000   
         C         C         1.0       0.5328486341836737  0.9838716321151914  0.7060432952302819 1.0000   
         C         C         1.0       0.5437563730548668  0.9419642651245778  0.7199203880950016 1.0000   
         C         C         1.0       0.5220915303612702  0.9217838912961155  0.7417090488406959 1.0000   
         C         C         1.0       0.4906056227596149  0.9425302442506563  0.7478068075641044 1.0000   
         C         C         1.0       0.1026787693554533  0.8851464722990318  0.685884844770884  1.0000   
         C         C         1.0       0.13677045107790187           0.8717478919071291 0.682627461281492  1.0000   
         C         C         1.0       0.14545352574111634           0.8271664931111222 0.6721809550262117 1.0000   
         C         C         1.0       0.11930228765296602           0.7947689837660207 0.6630079646921082 1.0000   
         C         C         1.0       0.08484276497351556           0.809241782256054  0.6633670925527358 1.0000   
         C         C         1.0       0.07716509360641068           0.8546092073852467 0.6734036358407901 1.0000   
         C         C         1.0       0.08829219191914352           0.9755788216879253 0.646934481169189  1.0000   
         C         C         1.0       0.09515898513106258           0.008370994376916574         0.6262296075347187 1.0000   
         C         C         1.0       0.12569402884124192           0.035404241288991445         0.6297085729368166 1.0000   
         C         C         1.0       0.14687411229278172           0.029874868534015775         0.6545313037549647 1.0000   
         C         C         1.0       0.13819566100598232           0.9976310909815823 0.6753516017360092 1.0000   
         C         C         1.0       0.10939367601875212           0.9695025901287609 0.6724091244070043 1.0000   
         H         H         1.0       0.07427997332027313           0.005171273360855988         0.8205407557517828 1.0000   
         H         H         1.0       0.12141568154646472           0.8709770310590155 0.8468691679590123 1.0000   
         H         H         1.0       0.5880407079910245  0.8312752638718913  0.8689829827127236 1.0000   
         H         H         1.0       0.5202108503275682  0.9494905347060809  0.8591643003575438 1.0000   
         H         H         1.0       0.20326817399084116           0.9384367134537914 0.7999346207148847 1.0000   
         H         H         1.0       0.25323106261692485           0.9042213936131749 0.8235580258445194 1.0000   
         H         H         1.0       0.19677972514476433           0.9083545923920089 0.9071815167028355 1.0000   
         H         H         1.0       0.15021383842201871           0.9400964884628673 0.884057709533173  1.0000   
         H         H         1.0       0.12252681766491208           0.03413993261235304          0.78343694468352   1.0000   
         H         H         1.0       0.10597330767702233           0.022786347768749105         0.7321266186566366 1.0000   
         H         H         1.0       0.11989054587524053           0.8718103576136202 0.7433690998147578 1.0000   
         H         H         1.0       0.13972167788890152           0.886352543204735  0.7910420087245619 1.0000   
         H         H         1.0       0.4925514468300145  0.03953026064537424           0.7036334725088752 1.0000   
         H         H         1.0       0.05630351978045288           0.02670045903376783          0.6929382609831284 1.0000   
         H         H         1.0       0.5271613992890241  0.8874030570684203  0.7526820651520267 1.0000   
         H         H         1.0       0.47316896930198654           0.9262636929769414 0.7619978645750234 1.0000   
         H         H         1.0       0.15594374885099355           0.8991684600680364 0.6886704171339623 1.0000   
         H         H         1.0       0.17363892484023644           0.8180678665232264 0.6698301314156516 1.0000   
         H         H         1.0       0.06417988776734182           0.7883828597575366 0.6564286293602016 1.0000   
         H         H         1.0       0.050808846640568735          0.8669015296917675 0.671122825814192  1.0000   
         H         H         1.0       0.06718141512001137           0.9506312049617486 0.6442212460168522 1.0000   
         H         H         1.0       0.07881341965635268           0.014333426602790578         0.6070575273494687 1.0000   
         H         H         1.0       0.17126133344885927           0.048723859364035116         0.654261037843849  1.0000   
         H         H         1.0       0.1579431000407392  0.990307198437408   0.6915482908135103 1.0000   
         C         C         1.0       0.9833934268711007  0.3374760397438874  0.5263855945267302 1.0000   
         C         C         1.0       0.9775482951539166  0.3793290166070949  0.5431819615218709 1.0000   
         C         C         1.0       0.004680500024998091          0.4107437739438667 0.5472166924244891 1.0000   
         C         C         1.0       0.0357799565913548  0.406964717852626   0.532593704573862  1.0000   
         C         C         1.0       0.03896296394362375           0.36727544678643265          0.5126937885027556 1.0000   
         C         C         1.0       0.01321742632166023           0.33301275305480244          0.5093477069581682 1.0000   
         H         H         1.0       0.9543568368567739  0.3825661115666524  0.5559643723362544 1.0000   
         H         H         1.0       0.003958035134656868          0.4404489204551615 0.5632367695676933 1.0000   
         H         H         1.0       0.060990541330608   0.3569509168556356  0.4989450293486665 1.0000   
         H         H         1.0       0.018289307896969476          0.30132734491421254          0.4966546515124199 1.0000   
         C         C         1.0       0.06907181470893194           0.41506555242282483          0.5970320180977065 1.0000   
         C         C         1.0       0.08040996253539189           0.39907925455993964          0.5696043085172495 1.0000   
         C         C         1.0       0.10062666193739239           0.35941554010471427          0.567312288946758  1.0000   
         C         C         1.0       0.1045758465221929  0.32891143071885826           0.5906885405717353 1.0000   
         C         C         1.0       0.09090273080400962           0.34163864684540746          0.618431172000131  1.0000   
         C         C         1.0       0.0725667289196327  0.3856898102567681  0.6206204093868654 1.0000   
         C         C         1.0       0.07077954953796793           0.4316623098943257 0.542749117175734  1.0000   
         C         C         1.0       0.06903407824186002           0.48912179316685267          0.5490303969815303 1.0000   
         C         C         1.0       0.09075711934269239           0.5157571195590621 0.5688541169600198 1.0000   
         C         C         1.0       0.09239405581810647           0.56598865401092   0.5710593134686015 1.0000   
         C         C         1.0       0.07214182537077794           0.5931971033198398 0.5540450161820198 1.0000   
         C         C         1.0       0.04828359753665288           0.5705928961778233 0.5355238798667283 1.0000   
         C         C         1.0       0.047119594505407945          0.5204631386160582 0.5327187402266138 1.0000   
         C         C         1.0       0.08771522442429176           0.4485290460056916 0.488421674235295  1.0000   
         C         C         1.0       0.10995621170261644           0.4616707074308524 0.4652904110871609 1.0000   
         C         C         1.0       0.14585128469723757           0.4631186383023232 0.4716271176074147 1.0000   
         C         C         1.0       0.1583297711264595  0.4399371868520398  0.4960895059561163 1.0000   
         C         C         1.0       0.1359426801927516  0.4331477307856463  0.5198876282196223 1.0000   
         C         C         1.0       0.10012959335532526           0.43839060086748843          0.5160528782532677 1.0000   
         C         C         1.0       0.16998640661685782           0.4915041156040978 0.4510427562649598 1.0000   
         C         C         1.0       0.28061208697689344           0.4892468236596243 0.4715509822735118 1.0000   
         C         C         1.0       0.2583141500359243  0.5063817860245481  0.49245665473159755          1.0000   
         C         C         1.0       0.2231660781149075  0.5134144780309429  0.48595471470123675          1.0000   
         C         C         1.0       0.21123411114448362           0.4996937723668662 0.4563069237108535 1.0000   
         C         C         1.0       0.2366092773231774  0.49075755402527815           0.43505609668516265          1.0000   
         C         C         1.0       0.2706202789780644  0.48477092030473856           0.44290219780296247          1.0000   
         C         C         1.0       0.15637511079849212           0.5461199825241836 0.4514150472673486 1.0000   
         C         C         1.0       0.15718308581828747           0.57350636972917   0.4261961057113726 1.0000   
         C         C         1.0       0.13476981101553237           0.6133736057005679 0.4254291298333734 1.0000   
         C         C         1.0       0.11494743065892261           0.6265530206682585 0.44943970683406426          1.0000   
         C         C         1.0       0.12148015329039374           0.6066026237523083 0.4756062412081536 1.0000   
         C         C         1.0       0.14160846579738576           0.565937514965065  0.47690421859601734          1.0000   
         C         C         1.0       0.1373649296724688  0.4754697745864021  0.3996207285062143 1.0000   
         C         C         1.0       0.1342450836855387  0.4509407587491554  0.37214744981963516          1.0000   
         C         C         1.0       0.1512663293151974  0.4085143045082948  0.36673910694850037          1.0000   
         C         C         1.0       0.17465450529831172           0.3907576894940723 0.3876067995318443 1.0000   
         C         C         1.0       0.17894600555195353           0.41544556208059646          0.41346721731758956          1.0000   
         C         C         1.0       0.1631238450922063  0.46175826119857494           0.4198484109525915 1.0000   
         H         H         1.0       0.053683909370063114          0.4459912353825277 0.5990997410908779 1.0000   
         H         H         1.0       0.11112703306532878           0.3431171250232188 0.5463322770664181 1.0000   
         H         H         1.0       0.11671478076195381           0.2933767488366693 0.5857057046793018 1.0000   
         H         H         1.0       0.06149855469557292           0.39794859479731076          0.6425253689069246 1.0000   
         H         H         1.0       0.10945518287408952           0.49347229642569695          0.5805180314524104 1.0000   
         H         H         1.0       0.11165255298925773           0.5810394250780783 0.5860947902056122 1.0000   
         H         H         1.0       0.034775711389407604          0.5926066795993233 0.5188392828201898 1.0000   
         H         H         1.0       0.03036306078486728           0.5092018973477428 0.515549897170567  1.0000   
         H         H         1.0       0.06101393725543576           0.44360152906794037          0.48098483304535805          1.0000   
         H         H         1.0       0.09706704251706956           0.46601960064889786          0.4444419663046045 1.0000   
         H         H         1.0       0.1858059857704495  0.43588341429833843           0.5000966239857059 1.0000   
         H         H         1.0       0.14698615629234096           0.42747629882393606          0.5411649114659911 1.0000   
         H         H         1.0       0.2677969980926324  0.5086643482783043  0.5153258222406546 1.0000   
         H         H         1.0       0.20525504747930629           0.5195889719122944 0.5044067662825232 1.0000   
         H         H         1.0       0.23243444437614033           0.4809392783363042 0.4116793792062052 1.0000   
         H         H         1.0       0.28843095090286225           0.46894392642137034          0.4271613495707615 1.0000   
         H         H         1.0       0.1732892085506285  0.5605665617236842  0.40551205107105176          1.0000   
         H         H         1.0       0.13244428621833906           0.63168952999089   0.4046376047132331 1.0000   
         H         H         1.0       0.10565430631697534           0.6182855825844169 0.49549994819677895          1.0000   
         H         H         1.0       0.1456202515096037  0.5472871360117559  0.49745011532048405          1.0000   
         H         H         1.0       0.12172126011692942           0.5077234841364973 0.40140303685065176          1.0000   
         H         H         1.0       0.11750778980973946           0.46581724906110633          0.3560618711885135 1.0000   
         H         H         1.0       0.18876308296159688           0.35553486391454814          0.384648371282148  1.0000   
         H         H         1.0       0.19722037334144893           0.3996861224530097 0.4281896524536871 1.0000   
         C         C         1.0       0.172352323930218   0.5093628926586542  0.23483496799613124          1.0000   
         C         C         1.0       0.16295118135746614           0.5265612596448908 0.2625421788587712 1.0000   
         C         C         1.0       0.12754275741730411           0.538306248366377  0.2703435546372925 1.0000   
         C         C         1.0       0.10185062238698901           0.531185369822264  0.24939755613569636          1.0000   
         C         C         1.0       0.11254302968083707           0.5195482510561588 0.22130351559298184          1.0000   
         C         C         1.0       0.14583970487893824           0.5052521571377334 0.21295267302118692          1.0000   
         H         H         1.0       0.18195894220362557           0.5323492803861419 0.27987822258074   1.0000   
         H         H         1.0       0.11910637161424792           0.5495278947296005 0.29196779610432005          1.0000   
         H         H         1.0       0.09267788685292055           0.5184061189829868 0.20518754767500874          1.0000   
         H         H         1.0       0.15053719771970267           0.4913086306415978 0.19078836850151487          1.0000   
         C         C         1.0       0.4587372887663338  0.49240158148158325           0.19013329864619208          1.0000   
         C         C         1.0       0.47893111306318953           0.5316859902149919 0.19786688135672456          1.0000   
         C         C         1.0       0.46217861335536375           0.5773296294406556 0.1985466092584996 1.0000   
         C         C         1.0       0.4306884226440131  0.584269054681592   0.18535665770764778          1.0000   
         C         C         1.0       0.41387936279249854           0.5441841004704431 0.17439513743025456          1.0000   
         C         C         1.0       0.425515985073014   0.49771065750554994           0.1785416097843405 1.0000   
         C         C         1.0       0.059748077242746486          0.5381780987938305 0.2560719180053158 1.0000   
         C         C         1.0       0.051738291694492906          0.5934510086346603 0.2482427146566092 1.0000   
         C         C         1.0       0.05845403822487478           0.6339985360769161 0.2666150107257826 1.0000   
         C         C         1.0       0.04943879093136827           0.6796193877525788 0.2576898383533553 1.0000   
         C         C         1.0       0.03849724098223528           0.6845303852761401 0.22904097325594128          1.0000   
         C         C         1.0       0.03691361271853566           0.6460638799579    0.20947708949451463          1.0000   
         C         C         1.0       0.04386622403192695           0.6010490726460609 0.21880561934588896          1.0000   
         C         C         1.0       0.018540305129311156          0.5458262784690694 0.30423206469744557          1.0000   
         C         C         1.0       0.4973546794916264  0.5132350187443081  0.2920317718264811 1.0000   
         C         C         1.0       0.505278457837839   0.4640809649466322  0.29602525223616144          1.0000   
         C         C         1.0       0.049339415502530175          0.46699323301456874          0.3267526925491702 1.0000   
         C         C         1.0       0.06412762293039521           0.48471263199418474          0.3026177403733205 1.0000   
         C         C         1.0       0.0481216863285943  0.5233599391258725  0.2889548579349849 1.0000   
         C         C         1.0       0.5122164115413194  0.44713837800214845           0.32849389372880744          1.0000   
         C         C         1.0       0.43155174966358506           0.4635671443880746 0.3969397215807277 1.0000   
         C         C         1.0       0.42346891000249043           0.46391911792567264          0.3668380750127823 1.0000   
         C         C         1.0       0.4490283005863841  0.46463727823570644           0.34544697989862205          1.0000   
         C         C         1.0       0.4843735801515731  0.4664560264526883  0.353014068473547  1.0000   
         C         C         1.0       0.4915838408824473  0.46923260521831783           0.3836850014968945 1.0000   
         C         C         1.0       0.46593704243023804           0.46733442176109685          0.4035975526758403 1.0000   
         C         C         1.0       0.5523455613670628  0.463076896190498   0.33274839324146666          1.0000   
         C         C         1.0       0.5605280886943067  0.5054204639144474  0.3454953486207939 1.0000   
         C         C         1.0       0.5938535081498534  0.5231406824335276  0.3417035510506927 1.0000   
         C         C         1.0       0.03555723039500136           0.5828072489624321 0.4304218907616991 1.0000   
         C         C         1.0       0.05702179162720734           0.5448768058748001 0.4229468265658984 1.0000   
         C         C         1.0       0.0481273042290944  0.5075030530715937  0.40446211264966636          1.0000   
         C         C         1.0       0.5228547604490779  0.3714491954019885  0.35638354686023505          1.0000   
         C         C         1.0       0.5178197366544078  0.3219310162645381  0.36368356620801806          1.0000   
         C         C         1.0       0.4988495969433355  0.291291790909606   0.3451249243703279 1.0000   
         C         C         1.0       0.4830849174406287  0.3096187759326695  0.32060614787897806          1.0000   
         C         C         1.0       0.484883319836459   0.3604282205871623  0.31623643305421195          1.0000   
         C         C         1.0       0.5071523604612761  0.3893197280380486  0.3323691283445729 1.0000   
         H         H         1.0       0.46841537432598995           0.45590883584382214          0.19071773307774803          1.0000   
         H         H         1.0       0.4730100566790529  0.6089311334966209  0.20920236446531346          1.0000   
         H         H         1.0       0.42064416057718895           0.6194897368933906 0.18370108753372252          1.0000   
         H         H         1.0       0.4063424339366382  0.4711102846676121  0.17054649881420064          1.0000   
         H         H         1.0       0.06911656988883964           0.6300174491179765 0.2888494344983991 1.0000   
         H         H         1.0       0.05483104607131789           0.7101572492563577 0.2733132158143527 1.0000   
         H         H         1.0       0.029010799195588136          0.6474981976785656 0.18635603825554384          1.0000   
         H         H         1.0       0.04337285356556975           0.5678660489290484 0.20325611396001472          1.0000   
         H         H         1.0       0.4904397321896766  0.5681122917541572  0.25991074990488233          1.0000   
         H         H         1.0       0.4959527913256249  0.5367600330161975  0.31198614471949293          1.0000   
         H         H         1.0       0.06424742967143711           0.4362091786782648 0.3332239269226702 1.0000   
         H         H         1.0       0.08483981889167555           0.4620585123004154 0.29349528711161316          1.0000   
         H         H         1.0       0.3957101522882874  0.4595348126876094  0.3601473915076882 1.0000   
         H         H         1.0       0.44530146334015125           0.4630112669709835 0.3212787975559713 1.0000   
         H         H         1.0       0.5190189482461035  0.4667750614298386  0.38901804323146244          1.0000   
         H         H         1.0       0.4732648260294494  0.46575792244691333           0.42804190371688666          1.0000   
         H         H         1.0       0.5426662014699577  0.529102020502695   0.3580748891550693 1.0000   
         H         H         1.0       0.6034556484347211  0.5548150326082869  0.35434305097623   1.0000   
         H         H         1.0       0.08060759162159159           0.5469566446495867 0.43612348227801145          1.0000   
         H         H         1.0       0.06493421183898321           0.4761781167167771 0.4017762417394862 1.0000   
         H         H         1.0       0.5383104594710659  0.3930824344070453  0.3734817135834392 1.0000   
         H         H         1.0       0.5297454107839126  0.3068661082593255  0.38377962028183865          1.0000   
         H         H         1.0       0.46517054347200043           0.28723107448367236          0.3078278490503985 1.0000   
         H         H         1.0       0.4670455315551733  0.3758493957388975  0.29973633188876714          1.0000   
         C         C         1.0       0.36747390095584354           0.3732724695785634 0.3967491069408461 1.0000   
         C         C         1.0       0.33277456749746936           0.38004228402850565          0.39834263494916267          1.0000   
         C         C         1.0       0.3114282056415685  0.35236324594539903           0.3799121281648192 1.0000   
         C         C         1.0       0.32455854151307334           0.3273752444819423 0.35557076890222744          1.0000   
         C         C         1.0       0.3604811711512828  0.3240345741471185  0.3533765392874248 1.0000   
         C         C         1.0       0.3830767300358489  0.34498404776699126           0.3736750374612676 1.0000   
         H         H         1.0       0.32118170111636357           0.40199352372455127          0.41501561827596084          1.0000   
         H         H         1.0       0.28243667219426144           0.3555054678197771 0.3845367886271113 1.0000   
         H         H         1.0       0.3721838515642877  0.3012553211831182  0.335769835730374  1.0000   
         H         H         1.0       0.40897549640176767           0.3386068808980868 0.3715688496323219 1.0000   
         C         C         1.0       0.26621768543886337           0.383452384990593  0.3258795782051305 1.0000   
         C         C         1.0       0.26713399343159244           0.33360489559087253          0.32116819194965407          1.0000   
         C         C         1.0       0.2383784607649716  0.30917162566662293           0.30768009654305506          1.0000   
         C         C         1.0       0.2075111792394624  0.33269608131357264           0.3029941081937366 1.0000   
         C         C         1.0       0.20557825149548767           0.38272491204850057          0.30858727693904653          1.0000   
         C         C         1.0       0.23381775649678546           0.40762014366641963          0.32178402274830653          1.0000   
         C         C         1.0       0.3008514304617619  0.30286958602868785           0.33019375323666506          1.0000   
         C         C         1.0       0.28963241657288374           0.25465713130022716          0.3472687617608496 1.0000   
         C         C         1.0       0.3095116546353603  0.2140295566997398  0.34664002800979077          1.0000   
         C         C         1.0       0.30121627298159065           0.17217602575527974          0.3597919937287926 1.0000   
         C         C         1.0       0.26918066776557437           0.16752537115934737          0.3740113077667974 1.0000   
         C         C         1.0       0.24786728778277597           0.20760156315231243          0.3767026478099068 1.0000   
         C         C         1.0       0.2591810007558427  0.2516431525342621  0.36529657304864427          1.0000   
         C         C         1.0       0.3379619000145368  0.33788040798242064           0.2871304424795241 1.0000   
         C         C         1.0       0.34796264078635825           0.3385133538541502 0.2578846011359941 1.0000   
         C         C         1.0       0.3358354411480628  0.30068328752390405           0.2382825051927887 1.0000   
         C         C         1.0       0.320005792086514   0.2606585427180695  0.2503778180296357 1.0000   
         C         C         1.0       0.31382866346472604           0.2595975800139906 0.2802244200429839 1.0000   
         C         C         1.0       0.3192848322332676  0.29859121874642    0.2987540611888157 1.0000   
         C         C         1.0       0.3341462392753109  0.3077370838812976  0.2033130112024803 1.0000   
         C         C         1.0       0.24006316952882836           0.4023642000371472 0.21774410418692636          1.0000   
         C         C         1.0       0.271412920755048   0.4211339450962935  0.2115508283997389 1.0000   
         C         C         1.0       0.3003963619684307  0.3919274149664054  0.20581892710062022          1.0000   
         C         C         1.0       0.30003504835346617           0.3425664052039146 0.20593293173985144          1.0000   
         C         C         1.0       0.26703096427552414           0.3224865587985684 0.21070226100695297          1.0000   
         C         C         1.0       0.23731313502446263           0.351420782420838  0.2175461774603079 1.0000   
         C         C         1.0       0.33100623285533626           0.26313245223377035          0.18201502067934383          1.0000   
         C         C         1.0       0.35188435639094123           0.22365786505269125          0.18785122146567676          1.0000   
         C         C         1.0       0.3569991359228945  0.18666988456076142           0.16679163829382598          1.0000   
         C         C         1.0       0.34040830543671385           0.18842352087509384          0.13962378658534594          1.0000   
         C         C         1.0       0.3150738953865566  0.2243888416339478  0.13550483657249168          1.0000   
         C         C         1.0       0.31181238389641386           0.26258197631163227          0.15576068489505107          1.0000   
         C         C         1.0       0.36790144073837505           0.354156459340542  0.16198308099139672          1.0000   
         C         C         1.0       0.3962439026906671  0.3742642199541997  0.14756847196026635          1.0000   
         C         C         1.0       0.4296566027719637  0.36619981060358686           0.15882954106840882          1.0000   
         C         C         1.0       0.433286525964261   0.3407463411461859  0.18476519701030747          1.0000   
         C         C         1.0       0.40313577074578844           0.32575143912598287          0.20078072895682644          1.0000   
         C         C         1.0       0.3688848268983566  0.33147183586528317           0.1894966713892969 1.0000   
         H         H         1.0       0.2859590900522447  0.40715237623886247           0.3349286063162752 1.0000   
         H         H         1.0       0.23439001077623914           0.27130449915210775          0.3036641252804519 1.0000   
         H         H         1.0       0.18561263558973257           0.3157051541665248 0.29132079836566666          1.0000   
         H         H         1.0       0.229412732188194   0.44726203914103035           0.32467174985055564          1.0000   
         H         H         1.0       0.3346542212263055  0.21667145298027313           0.3374820018549095 1.0000   
         H         H         1.0       0.31960569393587496           0.14038734721412985          0.36134488794948777          1.0000   
         H         H         1.0       0.22421320095845926           0.20546122025146205          0.39118070223541634          1.0000   
         H         H         1.0       0.24287762995748785           0.28529823340617594          0.3673115741451266 1.0000   
         H         H         1.0       0.3411933003834454  0.36745273917102506           0.30286969133254454          1.0000   
         H         H         1.0       0.35740685937587485           0.3734096741884274 0.25132792900058554          1.0000   
         H         H         1.0       0.31146166941599945           0.23070376757297217          0.23681938959176613          1.0000   
         H         H         1.0       0.29908983830010705           0.2281208539909835 0.2888272320640518 1.0000   
         H         H         1.0       0.2753440486245724  0.46141847571111655           0.21382119556673326          1.0000   
         H         H         1.0       0.3253807857769917  0.40934769903325247           0.2027283255614556 1.0000   
         H         H         1.0       0.2657198790958085  0.28283946436754626           0.21172412595945178          1.0000   
         H         H         1.0       0.21370531458429814           0.3319650276102005 0.22281088778069166          1.0000   
         H         H         1.0       0.366229730243374   0.22034026339888155           0.20771779327999207          1.0000   
         H         H         1.0       0.3733074205955361  0.1561071560235748  0.17222833486431105          1.0000   
         H         H         1.0       0.29750958288364926           0.22350477271818753          0.11616167009001493          1.0000   
         H         H         1.0       0.2930674945692143  0.29077851452024    0.1514924571019029 1.0000   
         H         H         1.0       0.3424230225163941  0.3597445284500346  0.15262258985345753          1.0000   
         H         H         1.0       0.39171409698507276           0.38995956020388206          0.12646754626914408          1.0000   
         H         H         1.0       0.45990810465116155           0.33040474968097866          0.1940733715214867 1.0000   
         H         H         1.0       0.40844182665119017           0.3073876192535824 0.2191986320310268 1.0000   
         C         C         1.0       0.33792123465749546           0.387043813484024  0.49201382970096047          1.0000   
         C         C         1.0       0.3206114616677365  0.36343516404229587           0.47014357589228917          1.0000   
         C         C         1.0       0.3310943229858568  0.3169235473034719  0.4604450508617761 1.0000   
         C         C         1.0       0.3591034563237977  0.2947961300865255  0.4738384775623223 1.0000   
         C         C         1.0       0.3761701431514216  0.3198528841771982  0.49768822026139165          1.0000   
         C         C         1.0       0.3649340655420494  0.3655165533240853  0.5061268369782956 1.0000   
         H         H         1.0       0.29867310273578296           0.3792837737638552 0.4585912040760101 1.0000   
         H         H         1.0       0.3194463368238179  0.30153318360609277           0.4409436449181102 1.0000   
         H         H         1.0       0.3992095575063536  0.3055944354662434  0.5093404701765104 1.0000   
         H         H         1.0       0.37696542901229896           0.38609713236295556          0.5239660043611453 1.0000   
         C         C         1.0       0.3776396142799247  0.23541654768753079           0.4093045372662545 1.0000   
         C         C         1.0       0.39304759113455034           0.24429085743033435          0.43622550729939347          1.0000   
         C         C         1.0       0.42942121856639454           0.25279181557490676          0.43676179310940044          1.0000   
         C         C         1.0       0.4487378470800185  0.2507077441565312  0.40997978338975327          1.0000   
         C         C         1.0       0.4325754359109634  0.2347438705397927  0.3844881567978025 1.0000   
         C         C         1.0       0.3977184450323937  0.22901941229932318           0.3843673024101757 1.0000   
         C         C         1.0       0.366879315786117   0.23973241274827087           0.46548291675286274          1.0000   
         C         C         1.0       0.3363144612020276  0.1997951916817114  0.4617166709793725 1.0000   
         C         C         1.0       0.3431078329918186  0.15606247849835067           0.44487773665479635          1.0000   
         C         C         1.0       0.3157160985257619  0.12613661369887733           0.4360074911344911 1.0000   
         C         C         1.0       0.2828839254672018  0.14266826279402367           0.4403729141708694 1.0000   
         C         C         1.0       0.2747761472231916  0.18192017729312754           0.4586837380567988 1.0000   
         C         C         1.0       0.30168140499455914           0.21003838351665996          0.46814105635005765          1.0000   
         C         C         1.0       0.36810801974147167           0.21579126398753742          0.5187700449616478 1.0000   
         C         C         1.0       0.38444987941873277           0.19779110121828625          0.5438632308373982 1.0000   
         C         C         1.0       0.4162689334236706  0.17446368639801746           0.5431934519824915 1.0000   
         C         C         1.0       0.43111635374357254           0.1673482847494476 0.5146935875210816 1.0000   
         C         C         1.0       0.41424691361212135           0.18438536506370384          0.48998343771695446          1.0000   
         C         C         1.0       0.3860076468249125  0.2148877670450873  0.49215644753828497          1.0000   
         C         C         1.0       0.4358978827353     0.16300957509323988           0.5744542106094703 1.0000   
         C         C         1.0       0.4531517010949199  0.3173823449712362  0.5851494187669527 1.0000   
         C         C         1.0       0.4294343843696059  0.2955873764646363  0.6035132939490683 1.0000   
         C         C         1.0       0.42587013435251775           0.24716572563424583          0.6023190999178    1.0000   
         C         C         1.0       0.44552465102583033           0.21838148286652545          0.5825373000429163 1.0000   
         C         C         1.0       0.47251303354534696           0.24126420307424593          0.5658979123994623 1.0000   
         C         C         1.0       0.47477240676078114           0.29054364167114033          0.566384649899989  1.0000   
         C         C         1.0       0.46519601914768455           0.12215421203495526          0.5723774756081368 1.0000   
         C         C         1.0       0.461890784823992   0.08127880706597454           0.5565829286171992 1.0000   
         C         C         1.0       0.4823814526561776  0.04031606791455977           0.5653067457693589 1.0000   
         C         C         1.0       0.5068549781091866  0.04547510174495462           0.5886825139404902 1.0000   
         C         C         1.0       0.5120279262057048  0.090925375559814   0.6007419255164708 1.0000   
         C         C         1.0       0.4944845862659072  0.13115882568342646           0.590861376526372  1.0000   
         C         C         1.0       0.4173741313633718  0.1359848710005931  0.6297286634089008 1.0000   
         C         C         1.0       0.39145633220070536           0.11788822483227633          0.6471572790256974 1.0000   
         C         C         1.0       0.3597624338448173  0.10271154607054882           0.6367337646283503 1.0000   
         C         C         1.0       0.3549188479826646  0.0991740361651794  0.6066259413408952 1.0000   
         C         C         1.0       0.38332374135112146           0.11030053611557791          0.5879016269165733 1.0000   
         C         C         1.0       0.41243113759945754           0.13589944363331902          0.5984626782563043 1.0000   
         H         H         1.0       0.3495256543026763  0.23108123864660432           0.40751338492251815          1.0000   
         H         H         1.0       0.44174643855638196           0.26086735810453227          0.45746156634105023          1.0000   
         H         H         1.0       0.47777674584250096           0.2552371494664393 0.41076105448597444          1.0000   
         H         H         1.0       0.3858155982699376  0.21313164006669968           0.3640666642779835 1.0000   
         H         H         1.0       0.3685782131209203  0.14379556877572525           0.44244233229825697          1.0000   
         H         H         1.0       0.32086039400111455           0.09276212638404248          0.42436933231818846          1.0000   
         H         H         1.0       0.24947752910256726           0.19747033287968632          0.4615551461638546 1.0000   
         H         H         1.0       0.2940844757258513  0.24259351073778354           0.4807633451214435 1.0000   
         H         H         1.0       0.34437177381284056           0.2363257702382996 0.5239686448821537 1.0000   
         H         H         1.0       0.3706057630000891  0.20513733644049623           0.5643200346404723 1.0000   
         H         H         1.0       0.45780779047321435           0.1526150200137897 0.5148750723706038 1.0000   
         H         H         1.0       0.42839223788190034           0.17868398565604005          0.4695882202508214 1.0000   
         H         H         1.0       0.40640093212426853           0.312881342357924  0.6123352942963161 1.0000   
         H         H         1.0       0.40578439772267655           0.2301939902604728 0.6157638892103761 1.0000   
         H         H         1.0       0.48819614055629307           0.21656676352970855          0.5521646571191856 1.0000   
         H         H         1.0       0.49553011555340276           0.30533616244689654          0.5525414406518804 1.0000   
         H         H         1.0       0.4389185256481488  0.07350431238573198           0.5407883507773339 1.0000   
         H         H         1.0       0.47390543887755027           0.0036482777961339727        0.5562382910520244 1.0000   
         H         H         1.0       0.5350953204169373  0.09510568974802945           0.6140551465826575 1.0000   
         H         H         1.0       0.49946553798618987           0.16569405226027098          0.5989501075352595 1.0000   
         H         H         1.0       0.44110125146809087           0.15451925142213643          0.6414485095345734 1.0000   
         H         H         1.0       0.3932080757999488  0.12636238021772947           0.6708462247349244 1.0000   
         H         H         1.0       0.3292752558852224  0.08764066459607395           0.5984831061637473 1.0000   
         H         H         1.0       0.37847408806666183           0.10419048082696045          0.564155801362976  1.0000   
         C         C         1.0       0.429732515321327   0.6379977366443607  0.5158583519434117 1.0000   
         C         C         1.0       0.42355910904766814           0.6606885403374908 0.4896039214697361 1.0000   
         C         C         1.0       0.39400634805242746           0.6884347222101824 0.48693778406076504          1.0000   
         C         C         1.0       0.3703658603941616  0.6967957393941062  0.511323797885501  1.0000   
         C         C         1.0       0.37830436791388106           0.673077780398758  0.5375114408982369 1.0000   
         C         C         1.0       0.4059287043540012  0.641316735285883   0.5377965726464273 1.0000   
         H         H         1.0       0.4424478611412111  0.6601205357045007  0.47123537531191156          1.0000   
         H         H         1.0       0.39109314503164705           0.7094619686438596 0.4678809946056406 1.0000   
         H         H         1.0       0.36048614852666616           0.6787747736861101 0.5571223176757413 1.0000   
         H         H         1.0       0.41406374560182585           0.6286302041680218 0.559385469468785  1.0000   
         C         C         1.0       0.2953503086649921  0.6601971076308032  0.5005610588440601 1.0000   
         C         C         1.0       0.30061058667851037           0.7077774033591645 0.5130345242321181 1.0000   
         C         C         1.0       0.26997541832424526           0.7344196392106257 0.5200569803257611 1.0000   
         C         C         1.0       0.23753220570529912           0.7205727120757772 0.5106735751104446 1.0000   
         C         C         1.0       0.2340388202086807  0.677943736296127   0.49258603007570195          1.0000   
         C         C         1.0       0.26196900594877326           0.6463190208620336 0.49044181717404045          1.0000   
         C         C         1.0       0.33832064662968675           0.7335351215339353 0.5095892163144582 1.0000   
         C         C         1.0       0.33053272223465446           0.7601915921201192 0.4795308948612759 1.0000   
         C         C         1.0       0.31720794683211206           0.8076135937052522 0.4790260680653465 1.0000   
         C         C         1.0       0.3015669656122669  0.8229151903425554  0.45307055937140944          1.0000   
         C         C         1.0       0.2996573411848903  0.7949042019860082  0.4294899863893685 1.0000   
         C         C         1.0       0.31414657690600795           0.7494896003439803 0.42896563129273113          1.0000   
         C         C         1.0       0.3281241023615416  0.7310087268216785  0.45433154795881225          1.0000   
         C         C         1.0       0.3320056127640894  0.7740288896810084  0.5614345969268572 1.0000   
         C         C         1.0       0.335145414955461   0.8160045125322736  0.5795005591154521 1.0000   
         C         C         1.0       0.3583576381277959  0.8523115954251901  0.5728381565241193 1.0000   
         C         C         1.0       0.3792140885587182  0.8460071892543732  0.547719076850183  1.0000   
         C         C         1.0       0.3751110140500687  0.8065397960958596  0.52945384914161   1.0000   
         C         C         1.0       0.3500866916980722  0.7710379665787067  0.5357555963371886 1.0000   
         C         C         1.0       0.35720487001112455           0.9025508301082924 0.5900162248239463 1.0000   
         C         C         1.0       0.29422499708950606           0.9781723741499222 0.5229143543402054 1.0000   
         C         C         1.0       0.27966577825589484           0.9531928987111488 0.5456812209299067 1.0000   
         C         C         1.0       0.29974475492222963           0.9296063436363807 0.5656541778317311 1.0000   
         C         C         1.0       0.33589865120719375           0.9343253052264967 0.5669167330942956 1.0000   
         C         C         1.0       0.35027517144393316           0.9648484337137674 0.5460903235701918 1.0000   
         C         C         1.0       0.329697180683575   0.9823539228476547  0.5233290583873639 1.0000   
         C         C         1.0       0.39342235627797206           0.9232943341862484 0.5986924667889901 1.0000   
         C         C         1.0       0.42313883228753063           0.8938327359121053 0.6000730265815741 1.0000   
         C         C         1.0       0.4534676277299848  0.9175898273852612  0.6109343364047196 1.0000   
         C         C         1.0       0.45625245143904175           0.9646620957443792 0.6185257448383836 1.0000   
         C         C         1.0       0.4255912231671593  0.9897166411214008  0.6200345904040102 1.0000   
         C         C         1.0       0.39431465158030155           0.9713926290910564 0.6091321228591094 1.0000   
         C         C         1.0       0.3162965991510813  0.9408881545714711  0.6311725382056681 1.0000   
         C         C         1.0       0.2922331570061237  0.9358140689555846  0.6535479410814645 1.0000   
         C         C         1.0       0.296309701598677   0.8973393811669862  0.6717332587654375 1.0000   
         C         C         1.0       0.324353664783696   0.8681416572662458  0.6696492378438983 1.0000   
         C         C         1.0       0.3462467483215721  0.869019433993372   0.6451092357945347 1.0000   
         C         C         1.0       0.3398994301922054  0.904461500220628   0.6230351832462823 1.0000   
         H         H         1.0       0.31804326243123177           0.6382333844496325 0.49511558496963515          1.0000   
         H         H         1.0       0.2738079756042109  0.7715301260157433  0.5293372517858402 1.0000   
         H         H         1.0       0.2183478416824913  0.7490467304538204  0.5142185447163219 1.0000   
         H         H         1.0       0.25904073556532053           0.6116833891980872 0.47716206961065316          1.0000   
         H         H         1.0       0.31644238036831857           0.8302776650130319 0.5000124044804539 1.0000   
         H         H         1.0       0.29153026051873426           0.8604435201195006 0.45304350176571484          1.0000   
         H         H         1.0       0.30782275316514507           0.7241406671708024 0.41199777010690897          1.0000   
         H         H         1.0       0.3351769975629599  0.6909577944482143  0.45307033433698063          1.0000   
         H         H         1.0       0.31184105685306307           0.7481421171640379 0.5686192990997182 1.0000   
         H         H         1.0       0.3193683475297238  0.8199709430907303  0.5983165558866985 1.0000   
         H         H         1.0       0.39889851955417066           0.8713593618187427 0.5406016849957633 1.0000   
         H         H         1.0       0.3920158027418298  0.804765309681135   0.5090102199736416 1.0000   
         H         H         1.0       0.2517973393253086  0.9516836155539977  0.548829036540825  1.0000   
         H         H         1.0       0.2844788434769996  0.9102231562781985  0.581468603495514  1.0000   
         H         H         1.0       0.37834850885184024           0.9720736607652346 0.543477575643609  1.0000   
         H         H         1.0       0.3446455684389869  0.0018534576881734655        0.508578590700875  1.0000   
         H         H         1.0       0.4222702554082549  0.8542216929606268  0.5957283202238441 1.0000   
         H         H         1.0       0.47518115494526525           0.895614712399048  0.611091558908708  1.0000   
         H         H         1.0       0.42413435468134514           0.0265210628538104 0.6282356433964239 1.0000   
         H         H         1.0       0.3720792521126621  0.9941305879396864  0.606379028080247  1.0000   
         H         H         1.0       0.31099639797529877           0.9714183657072458 0.615263531492303  1.0000   
         H         H         1.0       0.26960010096919973           0.9601230237696111 0.6556437463040822 1.0000   
         H         H         1.0       0.32773806459443233           0.8385672235376279 0.6842867911140572 1.0000   
         H         H         1.0       0.36574906794999756           0.8414723183110355 0.6413014612751927 1.0000   
         C         C         1.0       0.2152504009106005  0.7504965288409225  0.22561870054185984          1.0000   
         C         C         1.0       0.20846276434694658           0.7999620543261028 0.23112684631255748          1.0000   
         C         C         1.0       0.22866178624884087           0.8277426599523113 0.24986403006730099          1.0000   
         C         C         1.0       0.2600409928901646  0.8073641558763178  0.2603233838723189 1.0000   
         C         C         1.0       0.26983336081489306           0.7595869446119576 0.25115111282136837          1.0000   
         C         C         1.0       0.24615965791403246           0.7313519188422588 0.2350587846965319 1.0000   
         H         H         1.0       0.18410850731329167           0.8162668521203325 0.2253434480022352 1.0000   
         H         H         1.0       0.21796530581729093           0.8640364380632769 0.2553527865051749 1.0000   
         H         H         1.0       0.29404252395027897           0.7444509592937884 0.2566662886590775 1.0000   
         H         H         1.0       0.25489698721737014           0.6930218444523112 0.232966231921925  1.0000   
         C         C         1.0       0.3076924502626067  0.7766251404478567  0.31401039770676276          1.0000   
         C         C         1.0       0.3117643202858726  0.8170994134417368  0.2981862768562646 1.0000   
         C         C         1.0       0.34422051712940294           0.8416906036233971 0.3009053752889051 1.0000   
         C         C         1.0       0.36690107733626937           0.8323160727739529 0.3223694153376141 1.0000   
         C         C         1.0       0.35912445514742425           0.7967803799501035 0.34176935424918986          1.0000   
         C         C         1.0       0.3320366525582349  0.7665941892322339  0.3364856889328268 1.0000   
         C         C         1.0       0.28244262160974837           0.8434341380571071 0.279536726378177  1.0000   
         C         C         1.0       0.26045511811614935           0.864937552438378  0.3082697236783624 1.0000   
         C         C         1.0       0.27511969522287893           0.9011498726394199 0.3258223328640865 1.0000   
         C         C         1.0       0.2698350478316227  0.9004404139555192  0.3560197952703937 1.0000   
         C         C         1.0       0.2477276411559592  0.8681757714477706  0.3678455786143326 1.0000   
         C         C         1.0       0.22716150290599496           0.839902631436266  0.34911741891849624          1.0000   
         C         C         1.0       0.23460083345076294           0.8368735806025384 0.3200652735557441 1.0000   
         C         C         1.0       0.3209094107873194  0.8642831325184193  0.23466894181091597          1.0000   
         C         C         1.0       0.3459492900025895  0.8948166437221559  0.2232654671040025 1.0000   
         C         C         1.0       0.3462920964964566  0.9433613943309059  0.23180595508586363          1.0000   
         C         C         1.0       0.31859453524867376           0.9601892635734998 0.24928325165420925          1.0000   
         C         C         1.0       0.29391118071381056           0.9299081734010838 0.260555318140325  1.0000   
         C         C         1.0       0.297811786783811   0.8805570465839884  0.25757270733058685          1.0000   
         C         C         1.0       0.3763622059299842  0.9809050625261148  0.22146397564876794          1.0000   
         C         C         1.0       0.430063814406988   0.05581753936079825           0.29686664749993896          1.0000   
         C         C         1.0       0.4311405463122953  0.0738917433110633  0.26842376461584   1.0000   
         C         C         1.0       0.41272224294227455           0.050863809259844794         0.24593691869571618          1.0000   
         C         C         1.0       0.390314223374355   0.013230979004415167         0.24948829012979226          1.0000   
         C         C         1.0       0.38692651309116627           0.9989165499827722 0.2781189132681505 1.0000   
         C         C         1.0       0.40646464363877993           0.019425745397002148         0.30128316303282837          1.0000   
         C         C         1.0       0.36242925207102017           0.014966697478460356         0.19449822637345238          1.0000   
         C         C         1.0       0.38511680500013157           0.03719573797553699          0.17588203661226204          1.0000   
         C         C         1.0       0.372549918714241   0.06425151591711598           0.1528797185840114 1.0000   
         C         C         1.0       0.33722615380746584           0.07284573309181464          0.14879809356512957          1.0000   
         C         C         1.0       0.31383459881233844           0.0491206369373649 0.1656579212706423 1.0000   
         C         C         1.0       0.325569712647159   0.021496074139553123         0.18795593804140456          1.0000   
         C         C         1.0       0.4331051032963865  0.9284290781477315  0.23195503397740055          1.0000   
         C         C         1.0       0.4620339691297088  0.9027760437390948  0.2238949750309756 1.0000   
         C         C         1.0       0.4708916268665042  0.8977548380280267  0.19320707013942115          1.0000   
         C         C         1.0       0.4470186684501096  0.9110681859520282  0.17302206063365372          1.0000   
         C         C         1.0       0.4165132044545571  0.9331506793005329  0.18164673583753302          1.0000   
         C         C         1.0       0.41036652654329103           0.9488213579162428 0.21105710971323385          1.0000   
         H         H         1.0       0.28540010213660383           0.753637019522373  0.31306374513811247          1.0000   
         H         H         1.0       0.34979943942512975           0.873722989234766  0.2896344590558673 1.0000   
         H         H         1.0       0.3923840153673713  0.8495537565583523  0.32213958230304796          1.0000   
         H         H         1.0       0.32210293749291236           0.7441783556177187 0.3527223879196794 1.0000   
         H         H         1.0       0.29773575593725393           0.9203778568443567 0.31815857250115204          1.0000   
         H         H         1.0       0.28939671500473274           0.9220372999415639 0.36965150732351404          1.0000   
         H         H         1.0       0.2078839972731591  0.8170534369438982  0.35816471866631727          1.0000   
         H         H         1.0       0.22851217032891027           0.8050063751120007 0.3093211096252756 1.0000   
         H         H         1.0       0.32579501664598903           0.8252308872622516 0.22867378094416474          1.0000   
         H         H         1.0       0.3639424601840846  0.8772483921082715  0.20909608537264043          1.0000   
         H         H         1.0       0.31752650790897957           0.9984515961340389 0.2552077878841234 1.0000   
         H         H         1.0       0.27479058090897523           0.9503405812937802 0.2753906320896534 1.0000   
         H         H         1.0       0.44707385812416783           0.09997210495549846          0.2609396876075806 1.0000   
         H         H         1.0       0.41239373151016007           0.0681765160145662 0.2249533027592985 1.0000   
         H         H         1.0       0.36721622877311644           0.9718129478053237 0.28463375885808456          1.0000   
         H         H         1.0       0.40440500947100333           0.004585825084260753         0.32467441883157033          1.0000   
         H         H         1.0       0.41264982499865327           0.03264480757386701          0.18085530202253614          1.0000   
         H         H         1.0       0.3932871317966012  0.07795160510420551           0.139669115408937  1.0000   
         H         H         1.0       0.2867451104954494  0.0494639719439225  0.16089509891682185          1.0000   
         H         H         1.0       0.3042515223356628  0.011034534554833275         0.20171354645531575          1.0000   
         H         H         1.0       0.427562115433343   0.933988078327215   0.2557433530693447 1.0000   
         H         H         1.0       0.4796763306994951  0.8908459180938949  0.238120944247424  1.0000   
         H         H         1.0       0.4539367897241423  0.909620426485786   0.15007744540390403          1.0000   
         H         H         1.0       0.395303039683568   0.9413338627730076  0.16530057751983387          1.0000   
         C         C         1.0       0.22659520042911466           0.9199034414991891 0.4825860313682709 1.0000   
         C         C         1.0       0.2296513559603263  0.8831877405764591  0.5028786173171637 1.0000   
         C         C         1.0       0.20027621020208025           0.8575002915041331 0.5130655642799411 1.0000   
         C         C         1.0       0.16855759072332155           0.8712801226312871 0.5008367586788158 1.0000   
         C         C         1.0       0.16834502939436752           0.896268405081571  0.47417663016396155          1.0000   
         C         C         1.0       0.19609599219094276           0.9252211509818341 0.46774922821315057          1.0000   
         H         H         1.0       0.2547364531153104  0.8767302668897042  0.5133319384488643 1.0000   
         H         H         1.0       0.20091606315972063           0.8364067395862683 0.5327965302612043 1.0000   
         H         H         1.0       0.14268881771012112           0.9049683641990353 0.4650598427680171 1.0000   
         H         H         1.0       0.19145933717364888           0.9523747265634864 0.44916606427394307          1.0000   
         C         C         1.0       0.15903030939701748           0.9102432707868379 0.566499869042096  1.0000   
         C         C         1.0       0.13769633618972252           0.9108090665546106 0.5409189673115211 1.0000   
         C         C         1.0       0.12521167364191663           0.953511625728461  0.5305094837209928 1.0000   
         C         C         1.0       0.13409070658770852           0.9948371095719257 0.5448081195626281 1.0000   
         C         C         1.0       0.15557539557659184           0.9968885637212457 0.5697761303947728 1.0000   
         C         C         1.0       0.16818237885162435           0.9546402048736266 0.5810351161766246 1.0000   
         C         C         1.0       0.13269470750372442           0.8638047145082487 0.5193092222668441 1.0000   
         C         C         1.0       0.1333392383603946  0.8122533539646518  0.5365139625391631 1.0000   
         C         C         1.0       0.11448142912239823           0.8070576675954494 0.5624983395779024 1.0000   
         C         C         1.0       0.10597319319190315           0.762953273191438  0.5725689301973512 1.0000   
         C         C         1.0       0.11446726891782695           0.7222354582240587 0.5560580586228754 1.0000   
         C         C         1.0       0.13321579015963472           0.7254868075250354 0.5288161297014657 1.0000   
         C         C         1.0       0.1427413818054316  0.7705020919534545  0.5198602084803471 1.0000   
         C         C         1.0       0.06642995638328088           0.8788967435427367 0.5177418948863485 1.0000   
         C         C         1.0       0.5505556333229509  0.8628653467463613  0.4584101309160402 1.0000   
         C         C         1.0       0.5513057227076279  0.8163542946215337  0.4445528956502899 1.0000   
         C         C         1.0       0.059349835682314854          0.8099880304617121 0.47278195187592514          1.0000   
         C         C         1.0       0.09264566779370734           0.8257547398989181 0.4811443245010233 1.0000   
         C         C         1.0       0.09607417902070801           0.8599001157070816 0.5042328433395528 1.0000   
         C         C         1.0       0.5175690372857785  0.7822576504291469  0.44073497387734845          1.0000   
         C         C         1.0       0.5090304149759954  0.6891576177231818  0.516505554853912  1.0000   
         C         C         1.0       0.4980231151047767  0.7375865694538922  0.518618473816526  1.0000   
         C         C         1.0       0.5043761265972383  0.7668680200924197  0.4948846432675624 1.0000   
         C         C         1.0       0.5189221988931748  0.7501334670475142  0.46842127311516185          1.0000   
         C         C         1.0       0.5368082238612933  0.7061071435474348  0.4696888929136638 1.0000   
         C         C         1.0       0.5315984688405176  0.676627981742632   0.4936724969409732 1.0000   
         C         C         1.0       0.5194592483578053  0.7509480263894298  0.4103458184687279 1.0000   
         C         C         1.0       0.5257225710081764  0.7738807524984261  0.38435855066024677          1.0000   
         C         C         1.0       0.518246880623088   0.7563537777812203  0.35699867401615415          1.0000   
         C         C         1.0       0.5040732147836672  0.7101667661176498  0.35482633725459417          1.0000   
         C         C         1.0       0.49915201615508414           0.6834421145288258 0.37967030919513256          1.0000   
         C         C         1.0       0.5047858109454871  0.7042200694328837  0.4061783325433741 1.0000   
         C         C         1.0       0.45088778488600645           0.7863915521281144 0.4448956782622271 1.0000   
         C         C         1.0       0.4195463054081706  0.7967202946407874  0.43099421166061996          1.0000   
         C         C         1.0       0.41928266564138145           0.8292618074310297 0.4097122517563681 1.0000   
         C         C         1.0       0.4477474781748426  0.8564055578209491  0.4030151224286529 1.0000   
         C         C         1.0       0.4779029864993753  0.8491898912862109  0.4179358308778903 1.0000   
         C         C         1.0       0.48149350268669    0.8101147879314875  0.4370333204513453 1.0000   
         H         H         1.0       0.17093793509883748           0.8762206988740018 0.5743522908006203 1.0000   
         H         H         1.0       0.10775752016816652           0.9564045727685822 0.5128272338151602 1.0000   
         H         H         1.0       0.12796810919822746           0.029187250298203127         0.5341890417756364 1.0000   
         H         H         1.0       0.18409904441477778           0.9553624057104882 0.6004702183720861 1.0000   
         H         H         1.0       0.1069736974411108  0.8401519745226469  0.5736782687697666 1.0000   
         H         H         1.0       0.08898618610981218           0.760507116067245  0.592325212303633  1.0000   
         H         H         1.0       0.1439077674979156  0.6891054165963918  0.5196228361376882 1.0000   
         H         H         1.0       0.15536503404627558           0.7751999201054659 0.49826241496740303          1.0000   
         H         H         1.0       0.0695053748791439  0.898883741475368   0.538633276929148  1.0000   
         H         H         1.0       0.5256427033561197  0.8780313988164783  0.46513652360691055          1.0000   
         H         H         1.0       0.056490160370891634          0.7826674193215397 0.4547795473518628 1.0000   
         H         H         1.0       0.11456101727716102           0.8120475341667228 0.46967138394743435          1.0000   
         H         H         1.0       0.48274832591396843           0.7463996258647932 0.5387831274832205 1.0000   
         H         H         1.0       0.49516264433125773           0.8044322310679878 0.49623837559175904          1.0000   
         H         H         1.0       0.5555840104510732  0.6925701226379569  0.4548505801164435 1.0000   
         H         H         1.0       0.5380388139547091  0.6370147070188151  0.4942320927197247 1.0000   
         H         H         1.0       0.016167424386332785          0.8237039669349873 0.42257226665135444          1.0000   
         H         H         1.0       0.5206407391928157  0.7832178807850637  0.3390986739329648 1.0000   
         H         H         1.0       0.4865956639875421  0.6490433316682764  0.37579109286614926          1.0000   
         H         H         1.0       0.4927958013572703  0.6881715481377325  0.4240925694624681 1.0000   
         H         H         1.0       0.44987107143634064           0.7579727300364577 0.4608081502888549 1.0000   
         H         H         1.0       0.3974803668495075  0.7770910002897147  0.4363406944363293 1.0000   
         H         H         1.0       0.44794029604367563           0.8820033431816875 0.3854685605089656 1.0000   
         H         H         1.0       0.4998037404724002  0.8703002355892397  0.410795741598626  1.0000   
         C         C         1.0       0.5096895992144267  0.0019432232054992227        0.3256575861195672 1.0000   
         C         C         1.0       0.5115910953997119  0.9860039050559308  0.29669480644062024          1.0000   
         C         C         1.0       0.5391246710479142  0.9591103604216551  0.2871653100213645 1.0000   
         C         C         1.0       0.05148696356986921           0.973608478132588  0.31424504175531637          1.0000   
         C         C         1.0       0.049705812198409846          0.9941279536275085 0.3426330010479567 1.0000   
         C         C         1.0       0.5351879083191143  0.9883608201565772  0.3454332010017849 1.0000   
         H         H         1.0       0.4923676704169673  0.9953340257404657  0.2812462252061522 1.0000   
         H         H         1.0       0.5411520003808726  0.9506615818296786  0.2627844229735106 1.0000   
         H         H         1.0       0.0645193748272659  0.9807615361163251  0.3607368931547656 1.0000   
         H         H         1.0       0.5391220474518564  0.0020386959048626085        0.36857684638612487          1.0000   
         C         C         1.0       0.11143674808531745           0.9642722931533075 0.2580752018016717 1.0000   
         C         C         1.0       0.10740328286755259           0.9622622794898732 0.2878739223203535 1.0000   
         C         C         1.0       0.12956618328293135           0.9934551115608684 0.3046672170664891 1.0000   
         C         C         1.0       0.15313151113227322           0.023727531071392693         0.2914534156224639 1.0000   
         C         C         1.0       0.15652381957042918           0.025849696490657603         0.26132749983066567          1.0000   
         C         C         1.0       0.13633527222457253           0.992661358990712  0.2447630554892887 1.0000   
         C         C         1.0       0.0778374523916159  0.9309424330146632  0.30342732295309865          1.0000   
         C         C         1.0       0.05828331757260208           0.8896250471248172 0.28379021971123836          1.0000   
         C         C         1.0       0.07628582478359525           0.8613404071888774 0.2643515368402673 1.0000   
         C         C         1.0       0.059804908290216695          0.8249239116269662 0.2476003381321166 1.0000   
         C         C         1.0       0.025979481032476718          0.8089290443834507 0.253231363495519  1.0000   
         C         C         1.0       0.007432596325320118          0.8366560774816131 0.2737881569182004 1.0000   
         C         C         1.0       0.023833502363557635          0.874322111154183  0.2897005051120095 1.0000   
         C         C         1.0       0.12864846041678837           0.8838690814920378 0.32499703299241106          1.0000   
         C         C         1.0       0.13690591423123114           0.8379950263138635 0.3347491360717496 1.0000   
         C         C         1.0       0.1126203310744789  0.8082043949520884  0.3480714327406378 1.0000   
         C         C         1.0       0.08375392785397802           0.8327662145162492 0.3601800274857416 1.0000   
         C         C         1.0       0.07359604667007476           0.8766336585339937 0.3489473737907458 1.0000   
         C         C         1.0       0.0949995957119546  0.9009111590545501  0.3287284922126622 1.0000   
         C         C         1.0       0.11635087851054997           0.7486431814569967 0.3471619851148137 1.0000   
         C         C         1.0       0.15448755115732862           0.6980912374322137 0.2594146236272591 1.0000   
         C         C         1.0       0.1608830857674914  0.6709190307426927  0.28357890435647215          1.0000   
         C         C         1.0       0.14835802953163865           0.6871890862737868 0.3107809061191015 1.0000   
         C         C         1.0       0.13091986754658097           0.7305143076163441 0.3143243991822256 1.0000   
         C         C         1.0       0.1211692690444945  0.752977280440955   0.28850514819152884          1.0000   
         C         C         1.0       0.13336796113068625           0.7386296293456915 0.26145384424104473          1.0000   
         C         C         1.0       0.07897181110365661           0.7244189088699955 0.347756161835618  1.0000   
         C         C         1.0       0.05327072202385184           0.7387322700418444 0.3272377347047464 1.0000   
         C         C         1.0       0.021413295104423694          0.7169640107911848 0.326573049569271  1.0000   
         C         C         1.0       0.013089758785734817          0.6818062060409531 0.34740711243507527          1.0000   
         C         C         1.0       0.038632348989852135          0.6629197775232278 0.3636289031020146 1.0000   
         C         C         1.0       0.07127870197048138           0.683873211730179  0.36353962074605184          1.0000   
         C         C         1.0       0.12763003685496405           0.7516215928881887 0.40353866149596757          1.0000   
         C         C         1.0       0.14711568782793608           0.7401417366299983 0.42756193071793686          1.0000   
         C         C         1.0       0.18181852228172923           0.7275172675673334 0.42379147108860143          1.0000   
         C         C         1.0       0.19588410823729785           0.7203628763379079 0.39644428938454634          1.0000   
         C         C         1.0       0.17696260287855267           0.7292124289676474 0.37319792245652894          1.0000   
         C         C         1.0       0.14128512475480995           0.7428644374524169 0.37549255463723247          1.0000   
         H         H         1.0       0.09487251113004432           0.9454003201228747 0.2422089201523504 1.0000   
         H         H         1.0       0.12650968410026162           0.9895353690054103 0.330159459202864  1.0000   
         H         H         1.0       0.16833087175282765           0.04641652350048475          0.30613301779592744          1.0000   
         H         H         1.0       0.13939580384603037           0.990739477471786  0.22203708755918328          1.0000   
         H         H         1.0       0.10495755610392135           0.8681596855211577 0.2609659163400504 1.0000   
         H         H         1.0       0.07469342031697812           0.8066993953820807 0.23019884335768004          1.0000   
         H         H         1.0       0.9800781395947604  0.8254494587326818  0.27625585212281256          1.0000   
         H         H         1.0       0.008266752114644673          0.8925415376541158 0.3071102413816534 1.0000   
         H         H         1.0       0.1448866265531933  0.9050495800056871  0.3099869976042588 1.0000   
         H         H         1.0       0.16068244959677602           0.8226053343661486 0.32674777885753326          1.0000   
         H         H         1.0       0.0651630454817419  0.8127366862488739  0.37228130506114127          1.0000   
         H         H         1.0       0.04696827824680878           0.8901043595902727 0.35116937870466364          1.0000   
         H         H         1.0       0.1759723091293713  0.6387591664348435  0.2820052170830358 1.0000   
         H         H         1.0       0.1539980030858802  0.6650274679843866  0.329041366721787  1.0000   
         H         H         1.0       0.10531695228677743           0.7844674492592949 0.28895359648842694          1.0000   
         H         H         1.0       0.12304531459160774           0.7578281802905109 0.24207807033511836          1.0000   
         H         H         1.0       0.058169572138941104          0.7704737451615945 0.3131835057997294 1.0000   
         H         H         1.0       0.5391312098377408  0.7281446484262437  0.2779517558875666 1.0000   
         H         H         1.0       0.03299415916119153           0.6375318718580426 0.37869079011395135          1.0000   
         H         H         1.0       0.0902244120044195  0.6660641713972544  0.37805587673356095          1.0000   
         H         H         1.0       0.10191738655418277           0.7672717384760177 0.40585298733699204          1.0000   
         H         H         1.0       0.1343931109707776  0.7395781454728128  0.4491159861881048 1.0000   
         H         H         1.0       0.22364743015802704           0.717677994084953  0.3929265516857274 1.0000   
         H         H         1.0       0.190611418688105   0.7348277545675793  0.35133297202191177          1.0000   
         C         C         1.0       0.48697731708881653           0.6944099108448691 0.3254413595265838 1.0000   
         C         C         1.0       0.5049215289190346  0.6566647691955992  0.3042494000042793 1.0000   
         H         H         1.0       0.46129933121443006           0.6805965251831958 0.3301859223040546 1.0000   
         H         H         1.0       0.4815929555728801  0.7292931405796564  0.3130986501099728 1.0000   
         H         H         1.0       0.49190985439805607           0.6674454815405378 0.2822333337496112 1.0000   
         H         H         1.0       0.49799467767542677           0.6192896741984524 0.31131911901335824          1.0000   
         C         C         1.0       0.186768597312371   0.719318889411964   0.20966517519295033          1.0000   
         C         C         1.0       0.16615511679760772           0.6805910102518888 0.22832461857060965          1.0000   
         H         H         1.0       0.1675385652353971  0.7430003852608865  0.20028218321842228          1.0000   
         H         H         1.0       0.19799656937006355           0.7035171121794997 0.18950153301928963          1.0000   
         H         H         1.0       0.1806726864513876  0.646556065060536   0.23116241083030567          1.0000   
         H         H         1.0       0.14089460787933059           0.6674748896950528 0.21801770347395844          1.0000   
         C         C         1.0       0.47921190122833174           0.036853732830551156         0.3362186980464878 1.0000   
         C         C         1.0       0.4574316027561009  0.07432720537099224           0.3182124026053756 1.0000   
         H         H         1.0       0.49207766292646327           0.06032055026569383          0.35248540531314215          1.0000   
         H         H         1.0       0.4611040341030001  0.01679608713903913           0.34984903038036874          1.0000   
         H         H         1.0       0.47381941243361914           0.10304035910090548          0.30770731630137893          1.0000   
         H         H         1.0       0.4445735450204698  0.09172256439808614           0.33782196625452815          1.0000   
         C         C         1.0       0.3836157735385467  0.7915262769061838  0.369028448271017  1.0000   
         C         C         1.0       0.3867635290341739  0.8360904028213453  0.39188193651997705          1.0000   
         H         H         1.0       0.37501548283290376           0.7577978315046204 0.3812518031949551 1.0000   
         H         H         1.0       0.4104255376089893  0.7803562091899146  0.35835698830993046          1.0000   
         H         H         1.0       0.3846346605356061  0.8708987191603175  0.38173916383433343          1.0000   
         H         H         1.0       0.36362090678077447           0.8351973528165182 0.4056019017359614 1.0000   
         C         C         1.0       0.20591977046216492           0.6765736970462751 0.4689879608636046 1.0000   
         C         C         1.0       0.208609016820131   0.7213720570427158  0.44894595675005694          1.0000   
         H         H         1.0       0.20824770537862486           0.6475673638091392 0.45250972671858014          1.0000   
         H         H         1.0       0.1791814623304818  0.6761956816412845  0.4792018698623868 1.0000   
         H         H         1.0       0.23546130841915844           0.7266192522688785 0.43988087661027575          1.0000   
         H         H         1.0       0.20693008307010166           0.7543620682287957 0.46458371559015077          1.0000   
         C         C         1.0       0.2597150667300168  0.9495477332539811  0.47625865616692176          1.0000   
         C         C         1.0       0.269472475379384   0.9924488323629586  0.498683377640776  1.0000   
         H         H         1.0       0.28347924471273184           0.925515741750384  0.4742330731835954 1.0000   
         H         H         1.0       0.25907076983655974           0.9627862700412069 0.45314968813378853          1.0000   
         H         H         1.0       0.24823291700239702           0.013012375158058422         0.5084961381847606 1.0000   
         H         H         1.0       0.2829754107194615  0.018276223567717628         0.48420132668080784          1.0000   
         C         C         1.0       0.4656606438822254  0.6128044335755195  0.520129648748546  1.0000   
         C         C         1.0       0.4924035160124221  0.6468723271556808  0.5361000629741888 1.0000   
         H         H         1.0       0.4615632240609175  0.5796494731998268  0.5323660802413472 1.0000   
         H         H         1.0       0.4736707596198793  0.5904484033278717  0.49967231702159265          1.0000   
         H         H         1.0       0.5171197053887413  0.6296685576703771  0.5427551901650177 1.0000   
         H         H         1.0       0.48105012109511974           0.6631969123324725 0.556907314697852  1.0000   
         C         C         1.0       0.28347637624679356           0.8160706706489795 0.40023912500756315          1.0000   
         C         C         1.0       0.252064995817631   0.8539796669503235  0.399703705424951  1.0000   
         H         H         1.0       0.2703311178381997  0.7823814398080275  0.3890053887522253 1.0000   
         H         H         1.0       0.30632265268898295           0.8246922801636245 0.38762150920546373          1.0000   
         H         H         1.0       0.25488961236567914           0.8860310307569591 0.41527571603955293          1.0000   
         H         H         1.0       0.2311533468138038  0.8323588646544072  0.40872331854428895          1.0000   
         C         C         1.0       0.5194748393326449  0.0011937230212397693        0.6053400199609363 1.0000   
         C         C         1.0       0.4907503696786661  0.9870621053581985  0.6295611050514335 1.0000   
         H         H         1.0       0.524327599889669   0.9668340839146707  0.592575503377002  1.0000   
         H         H         1.0       0.545829845240308   0.010101273759377973         0.6161150624886642 1.0000   
         H         H         1.0       0.4827978041771061  0.02018138029381467           0.6442325784560009 1.0000   
         H         H         1.0       0.503864558264652   0.9609932410247254  0.6449695827705696 1.0000   
         C         C         1.0       0.3244344738984725  0.10084245378889466           0.12102461650609526          1.0000   
         C         C         1.0       0.34618110922019824           0.14628809845502966          0.11550624150670061          1.0000   
         H         H         1.0       0.2968706844200554  0.10882218771332867           0.1212654175894669 1.0000   
         H         H         1.0       0.32549245857359715           0.07725605740536753          0.10033752305546578          1.0000   
         H         H         1.0       0.34120321750975424           0.16272635718213738          0.09428593202001867          1.0000   
         H         H         1.0       0.3749711022226595  0.14003946171943277           0.11429726043717994          1.0000   
         C         C         1.0       0.2550109783907938  0.11536122775165833           0.42256685354560486          1.0000   
         C         C         1.0       0.25635563510763004           0.11925139036685573          0.3875279712197763 1.0000   
         H         H         1.0       0.25717156282891807           0.07687255224009507          0.4291414541916738 1.0000   
         H         H         1.0       0.22862521915352113           0.12556487141401657          0.431037059430975  1.0000   
         H         H         1.0       0.23357873463050485           0.10743603376363747          0.3765625830086862 1.0000   
         H         H         1.0       0.2765242623482838  0.09157730457040723           0.3780661131777401 1.0000   
         C         C         1.0       0.003903168055242823          0.7682612828206788 0.23716449997183237          1.0000   
         C         C         1.0       0.024740264019393002          0.732077197007463  0.2163815634408127 1.0000   
         H         H         1.0       0.991181877638455   0.7428384573032746  0.2533455771452273 1.0000   
         H         H         1.0       0.9862796785649365  0.7852387396317764  0.2214189041250507 1.0000   
         H         H         1.0       0.0455156230237559  0.7515728651655937  0.2037951412830477 1.0000   
         H         H         1.0       0.006007245244990634          0.7249143453977329 0.19849294906011494          1.0000   
         C         C         1.0       0.49052763216100054           0.2365952812642415 0.35170940447483173          1.0000   
         C         C         1.0       0.4514160024580732  0.22075684090005943           0.35614456564257   1.0000   
         H         H         1.0       0.504488125538713   0.22351357675458333           0.371076433958965  1.0000   
         H         H         1.0       0.5006341039753566  0.20937540351471834           0.33351162846881194          1.0000   
         H         H         1.0       0.45352043634914024           0.18227615865941374          0.3515558577617921 1.0000   
         H         H         1.0       0.4370494597839614  0.23101442256691535           0.3360857408750402 1.0000   
         C         C         1.0       0.3931884633755086  0.3979761782467123  0.4207044321919257 1.0000   
         C         C         1.0       0.4033870233474863  0.4510946445734328  0.42068052147174845          1.0000   
         H         H         1.0       0.3800697052554232  0.3991210381628959  0.4419982916522971 1.0000   
         H         H         1.0       0.416674206448735   0.3758476962060623  0.4260062655567916 1.0000   
         H         H         1.0       0.4124280731181468  0.46163190674001153           0.44357641754312915          1.0000   
         H         H         1.0       0.37856640620405013           0.4733001653337881 0.41731754913531466          1.0000   
         C         C         1.0       0.20756303803240864           0.4857664414142484 0.22767330136776587          1.0000   
         C         C         1.0       0.20625008605161296           0.43087097876651853          0.2233827027585626 1.0000   
         H         H         1.0       0.21418783247318737           0.5025224358102122 0.20769060952852006          1.0000   
         H         H         1.0       0.22912665382964886           0.49849416532815793          0.24288116345782648          1.0000   
         H         H         1.0       0.1896299671910091  0.4221835962048614  0.20407373974090906          1.0000   
         H         H         1.0       0.18842297359372687           0.41437818777664265          0.2399520429966521 1.0000   
         C         C         1.0       0.07294063586806325           0.648573519518595  0.5537126858757707 1.0000   
         C         C         1.0       0.10689292400043343           0.6730892599934749 0.5657271458971721 1.0000   
         H         H         1.0       0.07069039415927117           0.6616656831735009 0.5307672718194727 1.0000   
         H         H         1.0       0.05118704751486444           0.6640541897883784 0.5675778987777458 1.0000   
         H         H         1.0       0.1281587332857137  0.6474594819671893  0.5587595408189213 1.0000   
         H         H         1.0       0.10604313017330333           0.672077176642888  0.5895504637997858 1.0000   
         C         C         1.0       0.08103455641210446           0.6538680631912739 0.44754122332510277          1.0000   
         C         C         1.0       0.048148434354332276          0.6235957713961409 0.45437191223845824          1.0000   
         H         H         1.0       0.08245174639392035           0.6887513628959896 0.46368851802212063          1.0000   
         H         H         1.0       0.07646368766672952           0.6691647044112777 0.4265186237410226 1.0000   
         H         H         1.0       0.02874629093080605           0.6508729304881878 0.45463266042493006          1.0000   
         H         H         1.0       0.049864878105703565          0.6066338616505811 0.4761174210449354 1.0000   
         C         C         1.0       0.16889206712550472           0.40480685875592454          0.31327305782161396          1.0000   
         C         C         1.0       0.14522131999351254           0.38075830032649266          0.33690993200501257          1.0000   
         H         H         1.0       0.15442821366608062           0.40097517249030623          0.2925677184133905 1.0000   
         H         H         1.0       0.16962320251289284           0.4441488330968528 0.3141118338106256 1.0000   
         H         H         1.0       0.15160098618606538           0.34259583010109046          0.33894974282633783          1.0000   
         H         H         1.0       0.11824921425903523           0.38135965647201303          0.3320190804975741 1.0000   
         C         C         1.0       0.9622747164990357  0.294022804889069   0.5336980156140165 1.0000   
         C         C         1.0       0.4598803332770417  0.37379272395241353           0.5859252891935601 1.0000   
         H         H         1.0       0.9565386353225223  0.26959784377486    0.513456353256583  1.0000   
         H         H         1.0       0.9355697828600773  0.30353336033819006           0.5425033618994387 1.0000   
         H         H         1.0       0.4468797880196047  0.39062036446141263           0.6049784425203436 1.0000   
         H         H         1.0       0.4881186068142151  0.38125440659822296           0.5937656307917236 1.0000   
         C         C         1.0       0.3243097243813157  0.4372306347444456  0.5030741759156377 1.0000   
         C         C         1.0       0.3173617686666385  0.4768948255929744  0.4792808138495593 1.0000   
         H         H         1.0       0.3045180882802079  0.43240233490430385           0.5190004487187069 1.0000   
         H         H         1.0       0.34722570855195917           0.45020413467688464          0.515486863624789  1.0000   
         H         H         1.0       0.33112956742949634           0.5105105649731142 0.48830798478606385          1.0000   
         H         H         1.0       0.3305119498252355  0.46758982084094475           0.4586341986565882 1.0000   
         C         C         1.0       0.138218148355608   0.06906886396224055           0.6047439911403825 1.0000   
         C         C         1.0       0.16584436919460338           0.04612331292985972          0.5844377054231149 1.0000   
         H         H         1.0       0.11415155869728995           0.0769182679068614 0.5909484744208362 1.0000   
         H         H         1.0       0.1497898297490939  0.10599013154299608           0.613713759013989  1.0000   
         H         H         1.0       0.19123230871568336           0.04363085924726917          0.5967439742043441 1.0000   
         H         H         1.0       0.17106983643537552           0.07095740898987213          0.5662989444956859 1.0000   
         C         C         1.0       0.1789748866727873  0.0658465264908721  0.24716340202116097          1.0000   
         C         C         1.0       0.21650610007703325           0.04710025901951953          0.2389992801004855 1.0000   
         H         H         1.0       0.16635703786573455           0.07870679371268288          0.22608440083681391          1.0000   
         H         H         1.0       0.1831257230995462  0.09473911055679633           0.2623509544205312 1.0000   
         H         H         1.0       0.2253415734488168  0.03169113696015646           0.26061212503981646          1.0000   
         H         H         1.0       0.2343688600757554  0.07973713602407084           0.23470431653475743          1.0000   
         C         C         1.0       0.2562774720152061  0.8607480119837643  0.9163808021919603 1.0000   
         C         C         1.0       0.262868730335398   0.8842187607729626  0.8844991548801447 1.0000   
         H         H         1.0       0.2770560526573196  0.8320948392457816  0.9209186665293668 1.0000   
         H         H         1.0       0.2310519561426809  0.8376112279308757  0.9148759477782081 1.0000   
         H         H         1.0       0.27769797428617016           0.858436673174582  0.8694576277251244 1.0000   
         H         H         1.0       0.2791575147560432  0.9187424674420981  0.8878684391091002 1.0000   
         C         C         1.0       0.5047999849500769  0.8740985836391736  0.18262972051328505          1.0000   
         C         C         1.0       0.5355121156847488  0.9098869205468791  0.18872864513509705          1.0000   
         H         H         1.0       0.5107279503834948  0.8450347587350237  0.1971341801498747 1.0000   
         H         H         1.0       0.5023370134583371  0.8593657661019175  0.15959412385799968          1.0000   
         H         H         1.0       0.5609560895449801  0.893241632623147   0.1902794933626508 1.0000   
         H         H         1.0       0.5294453705460107  0.9286046234993872  0.2099041128065466 1.0000   
         C         C         1.0       0.5434707975706204  0.8646826671261864  0.9185499077045974 1.0000   
         C         C         1.0       0.525748952433545   0.8616193047262533  0.8886832394496077 1.0000   
         H         H         1.0       0.5255583663169995  0.8453097580347149  0.9332630022773469 1.0000   
         H         H         1.0       0.5684140163427959  0.8426177093312411  0.9177096381883225 1.0000   
         H         H         1.0       0.49997016374305187           0.8793432399823534 0.8871012779515078 1.0000   
         H         H         1.0       0.5195021469477171  0.8233697567965532  0.8845331605862269 1.0000   
         C         C         1.0       0.37630725614480864           0.8868265160945273 0.08395525527065686          1.0000   
         C         C         1.0       0.37387740305883593           0.8526529764951247 0.11065682108268714          1.0000   
         H         H         1.0       0.3506297918288693  0.9045992244353409  0.08000436062684625          1.0000   
         H         H         1.0       0.38078059600302366           0.8628479514432351 0.06418150427093741          1.0000   
         H         H         1.0       0.39485578990764564           0.8629736458287111 0.12698709859119056          1.0000   
         H         H         1.0       0.3798243772094098  0.8134638868250919  0.10292492510607257          1.0000   
         C         C         1.0       0.18724183782914935           0.17498368012351367          0.014294770364694287         1.0000   
         C         C         1.0       0.1750468533199149  0.17936095977246097           0.981041395263364  1.0000   
         H         H         1.0       0.16288185271977845           0.17308312809473303          0.028757095433605828         1.0000   
         H         H         1.0       0.2008634511719384  0.208543722994473   0.020007061797973513         1.0000   
         H         H         1.0       0.19887206427588008           0.16663154494536342          0.9645661766062245 1.0000   
         H         H         1.0       0.1724785860449915  0.21893021041421903           0.9773878623310169 1.0000   
         C         C         1.0       0.23203947422733506           0.9080470416220967 0.692909177928102  1.0000   
         C         C         1.0       0.2699532871192624  0.8892678951465629  0.6952840601768582 1.0000   
         H         H         1.0       0.2155391974831468  0.8835582223411387  0.705627499651021  1.0000   
         H         H         1.0       0.2200199547047103  0.9061039575818116  0.6699152038549683 1.0000   
         H         H         1.0       0.26804086985297837           0.8497092766435831 0.6987194719812704 1.0000   
         H         H         1.0       0.2782139763853181  0.9075667921143968  0.7169523915273911 1.0000   
         C         C         1.0       0.40393060993353963           0.9316302852190569 0.9535224183033654 1.0000   
         C         C         1.0       0.41384003884856174           0.9728555621481799 0.9766547984686227 1.0000   
         H         H         1.0       0.39163045172913463           0.9012483542411875 0.9649986401935351 1.0000   
         H         H         1.0       0.4274351187740027  0.9143390203794747  0.9435249611019026 1.0000   
         H         H         1.0       0.43559399231214874           0.9592967079504097 0.9906785283613834 1.0000   
         H         H         1.0       0.4230732103120978  0.004934026897508881         0.9664159361651772 1.0000   
         C         C         1.0       0.19393352699392052           0.16624144527826806          0.9027948356083495 1.0000   
         C         C         1.0       0.1768964453332014  0.16795900569839123           0.8716202961243295 1.0000   
         H         H         1.0       0.19753829871917875           0.20346093481662256          0.9133914793993554 1.0000   
         H         H         1.0       0.17364942004951076           0.15563697878721433          0.9183584717532706 1.0000   
         H         H         1.0       0.1977169892315473  0.18360436507635197           0.8578597035044041 1.0000   
         H         H         1.0       0.15374146271643674           0.19233653258763087          0.8732053501978392 1.0000   
         C         C         1.0       0.42222877560598926           0.033683900487695206         0.7174660514206205 1.0000   
         C         C         1.0       0.44207315115832146           0.005427044027038086         0.7421154887312893 1.0000   
         H         H         1.0       0.436147035561541   0.06547643045711204           0.7100058082365804 1.0000   
         H         H         1.0       0.4220299604799419  0.00852075747242731           0.6988966928025016 1.0000   
         H         H         1.0       0.4231447599764338  0.9747384993707869  0.7490900138684191 1.0000   
         H         H         1.0       0.4473576153948075  0.0318669753374774  0.7602655204453924 1.0000   
         C         C         1.0       0.4348711050658058  0.20671300688479535           0.9101582502706268 1.0000   
         C         C         1.0       0.474652019734277   0.2003543208306321  0.9043304157117877 1.0000   
         H         H         1.0       0.43081727526231284           0.2211855026818462 0.933350940634394  1.0000   
         H         H         1.0       0.42504619784154124           0.23668361363316257          0.896007838341374  1.0000   
         H         H         1.0       0.487500195487915   0.23623211296077287           0.9053105437309605 1.0000   
         H         H         1.0       0.47841356279805203           0.18601724574093637          0.881842066017121  1.0000   
         C         C         1.0       0.32757720368727433           0.10338748769679519          0.6546191665792142 1.0000   
         C         C         1.0       0.3083770670546013  0.154453230561496   0.6493168264037995 1.0000   
         H         H         1.0       0.3104873112295301  0.07185442466883396           0.6484023576097804 1.0000   
         H         H         1.0       0.3328844215352687  0.10265695194467447           0.679140072813301  1.0000   
         H         H         1.0       0.28537934828689526           0.1599693806282743 0.6614987633085231 1.0000   
         H         H         1.0       0.30134826795590125           0.1521880175630128 0.6261489823986363 1.0000   
         C         C         1.0       0.21130394389275312           0.3035140905071574 0.740882937227992  1.0000   
         C         C         1.0       0.1988274552453045  0.25310180272184907           0.7305751223314495 1.0000   
         H         H         1.0       0.20803366072323984           0.30055420082017087          0.7640756889228707 1.0000   
         H         H         1.0       0.19239320577826677           0.33120332187584367          0.7343020996899774 1.0000   
         H         H         1.0       0.19643247897548546           0.2525787029031476 0.7069768893681184 1.0000   
         H         H         1.0       0.17181803017327116           0.24720616553725944          0.7379642705226487 1.0000   
         C         C         1.0       0.4622985418710211  0.3819411630680207  0.14191322790201846          1.0000   
         C         C         1.0       0.4707321025275575  0.3477124538322622  0.11322144702595321          1.0000   
         H         H         1.0       0.45771612706758164           0.4186605539438867 0.1341257890637397 1.0000   
         H         H         1.0       0.48477063745660715           0.38513540655914463          0.1579159254222908 1.0000   
         H         H         1.0       0.46308991714213266           0.3092036071086912 0.11666372825334695          1.0000   
         H         H         1.0       0.4987256714434607  0.35091777948344965           0.10951281038118117          1.0000   
         C         C         1.0       0.5094178030075651  0.23716941610516626           0.07560061646302   1.0000   
         C         C         1.0       0.5274473861793959  0.234782140282472   0.04505936823893042          1.0000   
         H         H         1.0       0.4854667606946888  0.2594992709431301  0.0735565286298398 1.0000   
         H         H         1.0       0.5239076105042684  0.26046932322334265           0.09118723126485512          1.0000   
         H         H         1.0       0.5272400197222921  0.19628997195402434           0.03862393479779391          1.0000   
         H         H         1.0       0.5562397242048769  0.23569223130790654           0.04670093732051428          1.0000   
         C         C         1.0       0.3398390616380598  0.2196197028171389  0.8078696691361374 1.0000   
         C         C         1.0       0.37830386392715826           0.2014910899163972 0.8062927275571335 1.0000   
         H         H         1.0       0.32239597412244414           0.19082472949631893          0.8030377818284553 1.0000   
         H         H         1.0       0.3353601174554021  0.24290994806101537           0.789029014033907  1.0000   
         H         H         1.0       0.38115696013127814           0.17464967665844225          0.7874189565903058 1.0000   
         H         H         1.0       0.3873247812435286  0.18379994359490986           0.826005447442755  1.0000   
         C         C         1.0       0.38341782930135826           0.554157629886923  0.1530003793490549 1.0000   
         C         C         1.0       0.39496095248671853           0.5495708206400715 0.11954768384358225          1.0000   
         H         H         1.0       0.36231414448664984           0.5291645992476216 0.15759735824371288          1.0000   
         H         H         1.0       0.3707753143114689  0.5860168117772726  0.1550582854537707 1.0000   
         H         H         1.0       0.3951108493144647  0.5097340764317478  0.11396080134477062          1.0000   
         H         H         1.0       0.37195230883784264           0.5628861759426385 0.10683476182596113          1.0000   
         C         C         1.0       0.11795585498921891           0.7623497687053858 0.12103885704398855          1.0000   
         C         C         1.0       0.10734373753770414           0.7264115486281241 0.14677321480659228          1.0000   
         H         H         1.0       0.09370988970611509           0.7803425087403228 0.11208413218024625          1.0000   
         H         H         1.0       0.131476341195002   0.7428916928031146  0.10204099460002644          1.0000   
         H         H         1.0       0.09556696252372855           0.7511796932441881 0.16361998870053973          1.0000   
         H         H         1.0       0.1303810244007923  0.7106173406468538  0.1578331012602882 1.0000   
         C         C         1.0       0.9854206197524442  0.541094491796138   0.877534693515013  1.0000   
         C         C         1.0       0.991070091452378   0.5375661848947179  0.8439924278453477 1.0000   
         H         H         1.0       0.9653852039314303  0.5164568879256904  0.8860292394074658 1.0000   
         H         H         1.0       0.5660650587060314  0.5255386509007404  0.8342324012925026 1.0000   
         H         H         1.0       0.9691838059268331  0.5573538377831797  0.8333463776905673 1.0000   
         H         H         1.0       0.013623148631208394          0.5603704409465307 0.8385943525899231 1.0000   
         C         C         1.0       0.4577805724471484  0.556031882819859   0.9270702235050656 1.0000   
         C         C         1.0       0.4480508681878777  0.608701054644929   0.9369413155905866 1.0000   
         H         H         1.0       0.48466030145778183           0.5613979639634534 0.9201606509097982 1.0000   
         H         H         1.0       0.44328959001736057           0.5490735906897706 0.9072471142651811 1.0000   
         H         H         1.0       0.4189632405737177  0.6085646088985274  0.9376204400651933 1.0000   
         H         H         1.0       0.45947548871527405           0.6375971829420133 0.9210883126956728 1.0000   
         C         C         1.0       0.15284515749302785           0.3188177502494407 0.9678508065275417 1.0000   
         C         C         1.0       0.17012061991865265           0.3125446035898911 0.9367282027821215 1.0000   
         H         H         1.0       0.17252532583794292           0.31463840462800674          0.9844420334789193 1.0000   
         H         H         1.0       0.13172522103483764           0.2906712725254549 0.9690535593022299 1.0000   
         H         H         1.0       0.17172994186318527           0.27407112378729237          0.9306500996639825 1.0000   
         H         H         1.0       0.15265184671986348           0.33125166692056013          0.9216913092230864 1.0000   
         C         C         1.0       0.13602835135042843           0.32412963282769947          0.6584830678133604 1.0000   
         C         C         1.0       0.09789572576104115           0.31232361702401745          0.6486084307646488 1.0000   
         H         H         1.0       0.15921764974306096           0.3049071069800376 0.6463646262643375 1.0000   
         H         H         1.0       0.1399741709713544  0.31084040636968513           0.6814146274902104 1.0000   
         H         H         1.0       0.07989522015245351           0.3172352678255466 0.6668295995740988 1.0000   
         H         H         1.0       0.09630470183774498           0.2736369695121664 0.6441489659781575 1.0000   
         C         C         1.0       0.1275799926056308  0.7423880831938535  0.6513532391210173 1.0000   
         C         C         1.0       0.11664186468546729           0.6997844186558225 0.6726402798761965 1.0000   
         H         H         1.0       0.1188891962024996  0.7384869352726984  0.6277972122344188 1.0000   
         H         H         1.0       0.1557434006471026  0.7411838640455887  0.648073333772785  1.0000   
         H         H         1.0       0.0878766481202576  0.6920635435485203  0.6688517010070698 1.0000   
         H         H         1.0       0.12015125027653642           0.7166594574382354 0.695843638923477  1.0000   
         C         C         1.0       0.2009127972798733  0.6566499059976553  0.8871327159913446 1.0000   
         C         C         1.0       0.20723438424772028           0.6434032787054673 0.9207884422130722 1.0000   
         H         H         1.0       0.21640368913558156           0.6889500564786647 0.8844866593810657 1.0000   
         H         H         1.0       0.1722256736831526  0.6663139545577972  0.8849380299428438 1.0000   
         H         H         1.0       0.2122477653177019  0.6774490522683198  0.9364293394770974 1.0000   
         H         H         1.0       0.23148236673027803           0.619603621814726  0.9218298956240751 1.0000   
         C         C         1.0       0.38874950180733586           0.5091449106327588 0.8243971345339786 1.0000   
         C         C         1.0       0.3879983692074818  0.5180753518308553  0.8582274576740486 1.0000   
         H         H         1.0       0.40506132547900137           0.477459301370263  0.8202306409677428 1.0000   
         H         H         1.0       0.4027770495476367  0.5387452922253478  0.8145781957403311 1.0000   
         H         H         1.0       0.4155893098887504  0.5168817839634716  0.866106574794565  1.0000   
         H         H         1.0       0.37703824254940466           0.5548757882330757 0.8608676478867161 1.0000   
         C         C         1.0       0.13788671680140516           0.34551562159643756          0.8188691164839756 1.0000   
         C         C         1.0       0.12923316199042464           0.307331546024893  0.7938801642285642 1.0000   
         H         H         1.0       0.14241558596013332           0.3298901988628468 0.8402699937390071 1.0000   
         H         H         1.0       0.11791481697207673           0.37132990372454444          0.826439445195942  1.0000   
         H         H         1.0       0.13864044999565867           0.2713565401949043 0.8006045598346158 1.0000   
         H         H         1.0       0.14731465294184318           0.3152168617274219 0.776220240984875  1.0000   
         C         C         1.0       0.36050598222547053           0.5286836966370729 0.626352319874336  1.0000   
         C         C         1.0       0.3307979202976156  0.5343026054541034  0.6027880714375616 1.0000   
         H         H         1.0       0.3610604890390953  0.5596638020462819  0.6413925367195455 1.0000   
         H         H         1.0       0.3871908781305194  0.5291861000022132  0.6163646188152493 1.0000   
         H         H         1.0       0.33428181780364297           0.508905195991944  0.5834600068618981 1.0000   
         H         H         1.0       0.3344029569859303  0.5694025979505776  0.5921197516286653 1.0000   
         C         C         1.0       0.6598790179791344  0.38315547725322535           0.7918006995450894 1.0000   
         C         C         1.0       0.6932386320676641  0.3911796463161034  0.8019221618974096 1.0000   
         C         C         1.0       0.7058058451389091  0.43785192872433193           0.8085728395775554 1.0000   
         C         C         1.0       0.6836789674512784  0.47744797643290804           0.8050467207779464 1.0000   
         C         C         1.0       0.6500817837553611  0.46915948777331373           0.7936545073859189 1.0000   
         C         C         1.0       0.6369123427052966  0.4221069744957722  0.7896105389894557 1.0000   
         H         H         1.0       0.7119314468694984  0.3615192525126477  0.8031156684358506 1.0000   
         H         H         1.0       0.7335081749287986  0.4438418848809096  0.8145817588442393 1.0000   
         H         H         1.0       0.6337342506790451  0.5009434852734856  0.7916949820109483 1.0000   
         H         H         1.0       0.6107353687913782  0.41738455716070494           0.7833929833953572 1.0000   
         C         C         1.0       0.7313443255317013  0.5225763705892941  0.8561424090829888 1.0000   
         C         C         1.0       0.7356937830348814  0.5366539264761221  0.8272548979155874 1.0000   
         C         C         1.0       0.7631935765836958  0.5664012041355044  0.8209252753708146 1.0000   
         C         C         1.0       0.7901061660002299  0.5763414945615454  0.8402522590662737 1.0000   
         C         C         1.0       0.7865997243376209  0.560316032235258   0.8690564446747175 1.0000   
         C         C         1.0       0.7572485551405008  0.5324233441416388  0.8767873528712142 1.0000   
         C         C         1.0       0.7006840638994459  0.5292965703306063  0.8050859416063627 1.0000   
         C         C         1.0       0.6751582814845151  0.5725993088697696  0.8174017071094108 1.0000   
         C         C         1.0       0.6842674308243962  0.6211803547938965  0.8113868003593085 1.0000   
         C         C         1.0       0.6829477454087389  0.6540139849967828  0.8340874511243104 1.0000   
         C         C         1.0       0.6643746220383056  0.6454050720125948  0.8596039472713662 1.0000   
         C         C         1.0       0.6468797781718979  0.6022368889327305  0.8614802621431271 1.0000   
         C         C         1.0       0.6541850554171188  0.5634720234446613  0.841084320597815  1.0000   
         C         C         1.0       0.7389524495456102  0.5210324936651737  0.7545044901510962 1.0000   
         C         C         1.0       0.7414130729027202  0.5221030587207003  0.7241451083631152 1.0000   
         C         C         1.0       0.7141108206985293  0.5402447271757929  0.7064787790297273 1.0000   
         C         C         1.0       0.6826913046818223  0.5536456928152357  0.7216298630685336 1.0000   
         C         C         1.0       0.6804216604103656  0.5496739548619388  0.7517540282004843 1.0000   
         C         C         1.0       0.7080297374377948  0.5336418483502484  0.7693685502523286 1.0000   
         C         C         1.0       0.7119911517098861  0.5316270217925705  0.670487408716509  1.0000   
         C         C         1.0       0.8088423989639142  0.5145197920546667  0.6172161849141732 1.0000   
         C         C         1.0       0.7984485153092736  0.48128813834468803           0.6369661845729063 1.0000   
         C         C         1.0       0.7700446977119559  0.4887058730410371  0.6559107172250006 1.0000   
         C         C         1.0       0.749391549356537   0.5288819343355842  0.6528688053914484 1.0000   
         C         C         1.0       0.7613179948072164  0.5653279224843534  0.6336052199508831 1.0000   
         C         C         1.0       0.7905327045742742  0.5574328227107657  0.6159823642482344 1.0000   
         C         C         1.0       0.6862478807257164  0.5729154466670384  0.6591288293537052 1.0000   
         C         C         1.0       0.6527117743334175  0.5650548141092546  0.6481327260454606 1.0000   
         C         C         1.0       0.6289959130903482  0.6034752131649944  0.6454936322299304 1.0000   
         C         C         1.0       0.6391956749592574  0.6498883001158561  0.6528289532242803 1.0000   
         C         C         1.0       0.6720544575845138  0.6578316046239375  0.6635838024748195 1.0000   
         C         C         1.0       0.6960386832303181  0.6212909107260312  0.6658338177296849 1.0000   
         C         C         1.0       0.6905325726953437  0.46326451523382134           0.6335832816970217 1.0000   
         C         C         1.0       0.6837407367740732  0.41482806804784167           0.6257734766558786 1.0000   
         C         C         1.0       0.6734641757999621  0.38344246778123964           0.6467914434355988 1.0000   
         C         C         1.0       0.6753686212375304  0.3967086833535738  0.6755601652975807 1.0000   
         C         C         1.0       0.6870620620545317  0.44097043210589504           0.6838413652285215 1.0000   
         C         C         1.0       0.6945311739672446  0.4784427430620784  0.6635550380517594 1.0000   
         H         H         1.0       0.7075712448025634  0.5053881390724141  0.8641945705275907 1.0000   
         H         H         1.0       0.7663987084210604  0.583233353104434   0.798005437728556  1.0000   
         H         H         1.0       0.8109019833716667  0.6003270690307297  0.8329017408366952 1.0000   
         H         H         1.0       0.7500065444443205  0.5270094539162526  0.8998991069491615 1.0000   
         H         H         1.0       0.7019741680629373  0.6308039722059385  0.7929591028275771 1.0000   
         H         H         1.0       0.6952993221445218  0.6890832625171501  0.8340564213448282 1.0000   
         H         H         1.0       0.6309137355265958  0.5952271981643976  0.8809390905527203 1.0000   
         H         H         1.0       0.6483968992654378  0.5255199786715856  0.8459625381001155 1.0000   
         H         H         1.0       0.7617052755388096  0.511541212342184   0.767185337969323  1.0000   
         H         H         1.0       0.7689594170639557  0.5179229254461979  0.7146453028662021 1.0000   
         H         H         1.0       0.658765458353274   0.566331986065065   0.7114530778038937 1.0000   
         H         H         1.0       0.6568342303722715  0.5636862356813143  0.7598633516922104 1.0000   
         H         H         1.0       0.8106861356495682  0.4474157507963579  0.6400571267426164 1.0000   
         H         H         1.0       0.7636470581929179  0.46151830975489905           0.6703467069947607 1.0000   
         H         H         1.0       0.7452697899055176  0.598173524477577   0.628500813131377  1.0000   
         H         H         1.0       0.7964179481437493  0.5848889569313555  0.6006679135464179 1.0000   
         H         H         1.0       0.642655637348733   0.5287553892925257  0.6416057282723935 1.0000   
         H         H         1.0       0.6038697207286146  0.5963719472989918  0.6347704902668608 1.0000   
         H         H         1.0       0.6806057187290787  0.6972843910876452  0.669337322962926  1.0000   
         H         H         1.0       0.7194860725206631  0.6305104055257255  0.6759624041326592 1.0000   
         H         H         1.0       0.6986707632270109  0.48803494052324825           0.6158636529376763 1.0000   
         H         H         1.0       0.6894775644799209  0.40115919008502937           0.6032702427906477 1.0000   
         H         H         1.0       0.6703911635387187  0.37455969474142137           0.6937208253382844 1.0000   
         H         H         1.0       0.68947832461619    0.44666474286934804           0.7069426714362401 1.0000   
         C         C         1.0       0.6297524728172612  0.36889298031302264           0.9888545326437287 1.0000   
         C         C         1.0       0.6495392496273648  0.4065904291727483  0.0011827665833989975        1.0000   
         C         C         1.0       0.638950431989432   0.45321053284689444           0.9951790723171142 1.0000   
         C         C         1.0       0.6092181328071312  0.46370667425012946           0.9791689566218676 1.0000   
         C         C         1.0       0.5878347759587563  0.42462653045149196           0.9722364004752552 1.0000   
         C         C         1.0       0.5977777417115012  0.3778768289426777  0.9764661693484908 1.0000   
         H         H         1.0       0.6739895338990042  0.39881345109087457           0.011886268234667208         1.0000   
         H         H         1.0       0.6579907851246125  0.480335613491602   0.002141260648156784         1.0000   
         H         H         1.0       0.5631597458547122  0.428854210239951   0.9611745701414948 1.0000   
         H         H         1.0       0.5817821406320259  0.34793047265306043           0.9681542895561495 1.0000   
         C         C         1.0       0.5940059621665525  0.487421327233548   0.9155512560557418 1.0000   
         C         C         1.0       0.5847808693429731  0.5179441988374239  0.9392403353253221 1.0000   
         C         C         1.0       0.5603592995606037  0.5542733622031273  0.9340755352289974 1.0000   
         C         C         1.0       0.5490953930366516  0.5631789687813159  0.9061777549538387 1.0000   
         C         C         1.0       0.5590957762043952  0.5319623206184898  0.8832194234352659 1.0000   
         C         C         1.0       0.5810123293668951  0.49235550944022505           0.8884725633940701 1.0000   
         C         C         1.0       0.6031438634776454  0.5176390287827244  0.971290020093266  1.0000   
         C         C         1.0       0.6349452221049033  0.5517574452083922  0.9624451781196279 1.0000   
         C         C         1.0       0.6308856986869216  0.6022408124793521  0.9675864831287389 1.0000   
         C         C         1.0       0.6519408711180478  0.6332999601567757  0.9535712454521308 1.0000   
         C         C         1.0       0.6765611980923825  0.6161046559035795  0.9342123808014056 1.0000   
         C         C         1.0       0.6823781562067497  0.5670306307331708  0.930569973563374  1.0000   
         C         C         1.0       0.661675287995268   0.5349840107922318  0.9452422141989713 1.0000   
         C         C         1.0       0.5470611998959704  0.5223662487681474  0.002682413307855791         1.0000   
         C         C         1.0       0.5258465193041025  0.5462894246755089  0.022077271451490518         1.0000   
         C         C         1.0       0.5403878243093347  0.5833184891699071  0.04058669064711151          1.0000   
         C         C         1.0       0.5774552392109187  0.5848956884090469  0.0424468144230079 1.0000   
         C         C         1.0       0.5972182596474047  0.5589651774336732  0.023160554108635045         1.0000   
         C         C         1.0       0.5829068205901008  0.5332773881340191  0.9995716033504983 1.0000   
         C         C         1.0       0.5137875993084059  0.6250645296702299  0.05531430272041737          1.0000   
         C         C         1.0       0.9479860947068524  0.625227725429225   0.023309494724281787         1.0000   
         C         C         1.0       0.9369359570133304  0.5957690500007641  0.04619337572829463          1.0000   
         C         C         1.0       0.9612584983012448  0.5797278472262964  0.0658161193142055 1.0000   
         C         C         1.0       0.9957064799427512  0.5934867160415533  0.06483863044702161          1.0000   
         C         C         1.0       0.510692181001212   0.6520468638142863  0.9983542184633034 1.0000   
         C         C         1.0       0.9801691943791715  0.6443402945665376  0.02459890810795029          1.0000   
         C         C         1.0       0.5358014640078236  0.6680111470701793  0.07105329320119096          1.0000   
         C         C         1.0       0.5534903570053218  0.656919190492926   0.09642205772591689          1.0000   
         C         C         1.0       0.5804285913671775  0.6869584578703098  0.10810722235944167          1.0000   
         C         C         1.0       0.5841655324527197  0.731307006823046   0.09681411229918503          1.0000   
         C         C         1.0       0.5639922813304621  0.7443296162030084  0.07379156179039076          1.0000   
         C         C         1.0       0.5404592940942278  0.7135091964639012  0.060144855554768825         1.0000   
         C         C         1.0       0.9896355904300017  0.5434231933001779  0.1287647064648287 1.0000   
         C         C         1.0       0.9728310381534152  0.5061982607498537  0.14396178712658636          1.0000   
         C         C         1.0       0.9840621877002956  0.45827522964960127           0.14006400244810965          1.0000   
         C         C         1.0       0.010871693321328868          0.44783799435851185          0.12172226247059537          1.0000   
         C         C         1.0       0.02308088356440119           0.48290583993365094          0.10243142886232423          1.0000   
         C         C         1.0       0.013472063419179836          0.5313017808823047 0.10628694036046474          1.0000   
         H         H         1.0       0.6135355737940936  0.45827572267897004           0.9158543409104305 1.0000   
         H         H         1.0       0.5538546502868691  0.57862824263819    0.9524858621275398 1.0000   
         H         H         1.0       0.9943389517859716  0.5930919758844746  0.9245456095587944 1.0000   
         H         H         1.0       0.5891833358100863  0.4685767834733048  0.8702102977095815 1.0000   
         H         H         1.0       0.6079495660431095  0.6174380565932821  0.9781367858131285 1.0000   
         H         H         1.0       0.6486756405800105  0.6722961123124597  0.9570693338495514 1.0000   
         H         H         1.0       0.7006135452579715  0.5541330606818896  0.9146344032207151 1.0000   
         H         H         1.0       0.6625312427971903  0.49624043990743005           0.9403868424709639 1.0000   
         H         H         1.0       0.5329247784652543  0.49641231529992996           0.9887639556419463 1.0000   
         H         H         1.0       0.49929128783870375           0.5389834525821048 0.025186482179581526         1.0000   
         H         H         1.0       0.5911480563484632  0.6090262962257246  0.05763335080019839          1.0000   
         H         H         1.0       0.6236430923390998  0.5586851077861833  0.02456951653048467          1.0000   
         H         H         1.0       0.9098081138908717  0.5815075935898857  0.04743600596203912          1.0000   
         H         H         1.0       0.9468252387867735  0.5582573313894968  0.0828479416706255 1.0000   
         H         H         1.0       0.5364929698195993  0.669610577121009   0.9999869290294967 1.0000   
         H         H         1.0       0.9880361165524031  0.67193173860257    0.009076627215028  1.0000   
         H         H         1.0       0.550869274788461   0.6227918261249127  0.10572012310033484          1.0000   
         H         H         1.0       0.6005633288313333  0.6782625593881606  0.1249943106339341 1.0000   
         H         H         1.0       0.040391240994936295          0.7317863589474651 0.12748448850060676          1.0000   
         H         H         1.0       0.006433965364188721          0.6706900046469367 0.10324613063841079          1.0000   
         H         H         1.0       0.9780385053094682  0.580736499403315   0.12984582789939528          1.0000   
         H         H         1.0       0.9501978073236786  0.5154921909420997  0.1567116374457559 1.0000   
         H         H         1.0       0.021446879110712747          0.41323361679259574          0.12313678813468104          1.0000   
         H         H         1.0       0.5028953290756383  0.5334308300456294  0.07627516205223725          1.0000   
         C         C         1.0       0.9212746032451455  0.5402478834951837  0.983557579371946  1.0000   
         C         C         1.0       0.9481602682635707  0.5073685292434884  0.9850867917809649 1.0000   
         C         C         1.0       0.9418207351724533  0.463379039334653   0.9961892434945617 1.0000   
         C         C         1.0       0.9095901489880964  0.4511082314543739  0.0079368216240161 1.0000   
         C         C         1.0       0.8827851980521355  0.4802634308182668  0.0022040996854408856        1.0000   
         C         C         1.0       0.887789731585072   0.5255787656293498  0.990778250468461  1.0000   
         H         H         1.0       0.9747672953266898  0.5208319987080452  0.9814110047037866 1.0000   
         H         H         1.0       0.9632919493993131  0.43974330806079365           0.0002857066335109071        1.0000   
         H         H         1.0       0.8575398453962232  0.47380029986307787           0.010519984485058753         1.0000   
         H         H         1.0       0.8683540622437077  0.5523684521362151  0.9911389716204616 1.0000   
         C         C         1.0       0.895270557091977   0.4675443407727211  0.07173282327226227          1.0000   
         C         C         1.0       0.8898295404676755  0.420409002665352   0.05870668532465784          1.0000   
         C         C         1.0       0.8734463431676357  0.38729507112745065           0.07585876264928487          1.0000   
         C         C         1.0       0.8648406485791585  0.3948516583178959  0.10483900114175036          1.0000   
         C         C         1.0       0.8725397063708467  0.43975553170725645           0.11753981972707434          1.0000   
         C         C         1.0       0.8870126173107141  0.47718766891702685           0.10097725610938607          1.0000   
         C         C         1.0       0.9045414840353028  0.40516513720851316           0.027364855062799398         1.0000   
         C         C         1.0       0.9357998534913565  0.3708545230575198  0.03686604991851494          1.0000   
         C         C         1.0       0.9348195094993464  0.3191171426293304  0.0321463440804004 1.0000   
         C         C         1.0       0.9584067663230333  0.29019027034630435           0.04641325647268735          1.0000   
         C         C         1.0       0.9842676029188393  0.30985915284986887           0.0649124461004047 1.0000   
         C         C         1.0       0.9868745314217001  0.36121216854437405           0.06630695527479702          1.0000   
         C         C         1.0       0.9628247060742631  0.38986662536775457           0.053943074953324066         1.0000   
         C         C         1.0       0.8395774639531035  0.38039922003438026           0.013716884778690819         1.0000   
         C         C         1.0       0.8157186069542666  0.36307718800225675           0.993400371406829  1.0000   
         C         C         1.0       0.8243694130552407  0.3519348305722978  0.9653701604212478 1.0000   
         C         C         1.0       0.8599613763767392  0.3473767665795703  0.9591323432488728 1.0000   
         C         C         1.0       0.8848958702961349  0.35831560998047857           0.9775224893936797 1.0000   
         C         C         1.0       0.8761576354323928  0.3745540938803599  0.007129599718670443         1.0000   
         C         C         1.0       0.7961912190176175  0.35872678731306074           0.9380533001332586 1.0000   
         C         C         1.0       0.6931589072913537  0.3041295022708875  0.9556121973709159 1.0000   
         C         C         1.0       0.6976033873590223  0.34358839337579156           0.9361852367858807 1.0000   
         C         C         1.0       0.7294026105955762  0.3590236079384016  0.9300280822691763 1.0000   
         C         C         1.0       0.7587449485131705  0.3385326806038522  0.9439285487061537 1.0000   
         C         C         1.0       0.7547837013262458  0.29796592046813897           0.9612492546047761 1.0000   
         C         C         1.0       0.7216817438763785  0.2810591677367462  0.9678824631139696 1.0000   
         C         C         1.0       0.8036751597416213  0.3317310919747673  0.9053284775164109 1.0000   
         C         C         1.0       0.7929841313332417  0.3530388651837052  0.8785014256157286 1.0000   
         C         C         1.0       0.8029596545160657  0.33172437634927215           0.8512043958715171 1.0000   
         C         C         1.0       0.815375169139397   0.2854063424682559  0.8498942605933975 1.0000   
         C         C         1.0       0.8240095900245822  0.2627757021430854  0.8757969533781101 1.0000   
         C         C         1.0       0.8163845072638053  0.2852985311313306  0.9033155479505006 1.0000   
         C         C         1.0       0.779045124946396   0.4487272910846088  0.9519100267218192 1.0000   
         C         C         1.0       0.7836578105840797  0.49798190614998067           0.949422059810437  1.0000   
         C         C         1.0       0.8091493721062994  0.5160579813791488  0.9307275207070348 1.0000   
         C         C         1.0       0.8325527728025359  0.4839308076309041  0.9196412812652048 1.0000   
         C         C         1.0       0.8278035723927544  0.43463671575559787           0.9212214655141365 1.0000   
         C         C         1.0       0.7986453627874597  0.4160210048294357  0.9363648914909937 1.0000   
         H         H         1.0       0.9113106592378266  0.4953319983178573  0.0609273080295909 1.0000   
         H         H         1.0       0.8672418791046469  0.3506299886257524  0.0662678149871986 1.0000   
         H         H         1.0       0.855900411196341   0.3663224432723274  0.11743356887430106          1.0000   
         H         H         1.0       0.8924519883745158  0.5114634314047326  0.11310875272760879          1.0000   
         H         H         1.0       0.9150860486780543  0.30026556505062224           0.019564303941987715         1.0000   
         H         H         1.0       0.9556676882336143  0.2516500320709478  0.046448493049014994         1.0000   
         H         H         1.0       0.006626867999103725          0.3790840069768888 0.08094535500955247          1.0000   
         H         H         1.0       0.9653482748741353  0.4269879449897872  0.06059956543759171          1.0000   
         H         H         1.0       0.8328792203906898  0.4019743936021323  0.03273761070557368          1.0000   
         H         H         1.0       0.7884030183272098  0.3687293799301733  0.9973306516223063 1.0000   
         H         H         1.0       0.8678501326027915  0.34690468760009485           0.9354584934918634 1.0000   
         H         H         1.0       0.909126931933406   0.36752626948115175           0.9680433865170593 1.0000   
         H         H         1.0       0.6743040777905954  0.35008847490794803           0.9222504014490541 1.0000   
         H         H         1.0       0.733926920177984   0.3852475506096276  0.9139504677448116 1.0000   
         H         H         1.0       0.7765817912700762  0.2825335464508705  0.9692924742397675 1.0000   
         H         H         1.0       0.7188434905542429  0.2503458373005579  0.9813115280107322 1.0000   
         H         H         1.0       0.7803224232356669  0.38757098306849685           0.8802317358939675 1.0000   
         H         H         1.0       0.7977558042037259  0.34970728468957635           0.8323809978783459 1.0000   
         H         H         1.0       0.8364681262857018  0.2264878852378593  0.8752293026748438 1.0000   
         H         H         1.0       0.8260999443742755  0.2638564389945537  0.9219601245051707 1.0000   
         H         H         1.0       0.7602460305460991  0.43629162792294757           0.9681261227068805 1.0000   
         H         H         1.0       0.7646274829227528  0.5228161636995501  0.9599136776008234 1.0000   
         H         H         1.0       0.8520537378739473  0.49568580300060333           0.9033378130668875 1.0000   
         H         H         1.0       0.843319932889057   0.41087956964038036           0.9078619091966936 1.0000   
         C         C         1.0       0.881629165513412   0.46256483735782816           0.6343695102430482 1.0000   
         C         C         1.0       0.8771629055798169  0.4698131539965901  0.6644894884732446 1.0000   
         C         C         1.0       0.8723411681511788  0.4291079546592952  0.6811283154507497 1.0000   
         C         C         1.0       0.8805409969653326  0.38259787364817177           0.6705412401850687 1.0000   
         C         C         1.0       0.8944357579260804  0.37716787736031254           0.6417049770089492 1.0000   
         C         C         1.0       0.89504989656181    0.4180537351144394  0.6232763022054978 1.0000   
         H         H         1.0       0.8698259865387498  0.5072576112516244  0.6723096214952515 1.0000   
         H         H         1.0       0.8570802494129637  0.4326081825433296  0.7002818493712614 1.0000   
         H         H         1.0       0.9044534704335753  0.3436477366688619  0.6347194662031928 1.0000   
         H         H         1.0       0.9035324900513433  0.41505955973859265           0.6004976509455511 1.0000   
         C         C         1.0       0.8482638245779418  0.27930699351422245           0.6471322727144951 1.0000   
         C         C         1.0       0.8664403262425368  0.2816016614656331  0.6740854472566044 1.0000   
         C         C         1.0       0.8689547809333908  0.23881249939866153           0.6890429550554136 1.0000   
         C         C         1.0       0.8527581498958076  0.1968639170366133  0.6784364561461773 1.0000   
         C         C         1.0       0.8350056170309542  0.1947611960408136  0.6510451532248566 1.0000   
         C         C         1.0       0.8343302590175302  0.23723443080668938           0.6356700281398138 1.0000   
         C         C         1.0       0.8719027070898192  0.3355974694726796  0.6889662540145662 1.0000   
         C         C         1.0       0.8356993358437009  0.33875155111797167           0.7069464243482635 1.0000   
         C         C         1.0       0.8286662778773655  0.31240173056311615           0.7319007064905917 1.0000   
         C         C         1.0       0.7957730780343651  0.3067116572048015  0.7435253085387937 1.0000   
         C         C         1.0       0.767705805173265   0.3236897249139112  0.728772722590182  1.0000   
         C         C         1.0       0.7711127383471288  0.35120827262092913           0.7042420526007783 1.0000   
         C         C         1.0       0.8062624292176538  0.3570873248867298  0.6929123353733959 1.0000   
         C         C         1.0       0.932707738546771   0.31022134471427937           0.7102868341505966 1.0000   
         C         C         1.0       0.958419121227464   0.3142127545733608  0.7316757041654446 1.0000   
         C         C         1.0       0.9564795756641493  0.34857308569853124           0.7548783285276363 1.0000   
         C         C         1.0       0.9272797132856259  0.3779454444172224  0.7545330848536068 1.0000   
         C         C         1.0       0.9010892465314362  0.3715323762559477  0.7361615501945874 1.0000   
         C         C         1.0       0.9025626312552371  0.33824609672950384           0.712794885160466  1.0000   
         C         C         1.0       0.9798785735491478  0.3432932663774361  0.7841622161176426 1.0000   
         C         C         1.0       0.5887834047823749  0.3318490423110689  0.7557100283587979 1.0000   
         C         C         1.0       0.5688286295162044  0.3626061112410872  0.7395790600656643 1.0000   
         C         C         1.0       0.04104578425127836           0.33229959363183126          0.7565010621300159 1.0000   
         C         C         1.0       0.01918716043078761           0.32049482853576794          0.7802628108311459 1.0000   
         C         C         1.0       0.031339780476529855          0.2907821276548956 0.8020001199524941 1.0000   
         C         C         1.0       0.06822734554180987           0.28837878195233796          0.8066422118757708 1.0000   
         C         C         1.0       0.9525459347089948  0.30942388550267313           0.8017306158730008 1.0000   
         C         C         1.0       0.9254154958883654  0.3311702785871414  0.8195391400293829 1.0000   
         C         C         1.0       0.8934730729886506  0.30787164784035936           0.8218977217706664 1.0000   
         C         C         1.0       0.891037611379273   0.2595322851528299  0.8129639717450035 1.0000   
         C         C         1.0       0.9193108395733106  0.2359316180208971  0.7995559063390667 1.0000   
         C         C         1.0       0.9482519958971578  0.25909056915633977           0.7945748031816461 1.0000   
         C         C         1.0       0.9871304423224092  0.3997576225134198  0.8303602013672152 1.0000   
         C         C         1.0       0.9908600770143436  0.4433749035088172  0.84504753516235   1.0000   
         C         C         1.0       0.9914730721171412  0.4859895456118616  0.8298655590956348 1.0000   
         C         C         1.0       0.9913146219727603  0.4838521358493965  0.7997126285904299 1.0000   
         C         C         1.0       0.9888211867869608  0.43761026737637543           0.7858109324114925 1.0000   
         C         C         1.0       0.9849705192997168  0.39517001783957917           0.8008303760249129 1.0000   
         H         H         1.0       0.8444862161273401  0.3115230428797355  0.6339276684669631 1.0000   
         H         H         1.0       0.8787387692106677  0.24028995794428157           0.7112380169704204 1.0000   
         H         H         1.0       0.8530621305644777  0.16265635966106914           0.689504485135879  1.0000   
         H         H         1.0       0.8191408509928172  0.2444754065303701  0.6151116193788676 1.0000   
         H         H         1.0       0.8493635700393117  0.29639388254408777           0.7442370793263959 1.0000   
         H         H         1.0       0.7922579221418182  0.2809408050399121  0.7606749863871977 1.0000   
         H         H         1.0       0.7479414471910688  0.3616425676078641  0.6912653830164304 1.0000   
         H         H         1.0       0.8073452955597904  0.37141639930086545           0.6713844213060569 1.0000   
         H         H         1.0       0.9343326941075232  0.28457245290768346           0.6928332590148893 1.0000   
         H         H         1.0       0.98071027980714    0.2869219290579012  0.7311102064816823 1.0000   
         H         H         1.0       0.9240727815718353  0.3997633358407545  0.7742651823996378 1.0000   
         H         H         1.0       0.8791976451555268  0.3963712214043343  0.7406868967532771 1.0000   
         H         H         1.0       0.5799277874186989  0.3802484682553632  0.720210013997877  1.0000   
         H         H         1.0       0.030381246037933574          0.3500360064753232 0.7361916416364482 1.0000   
         H         H         1.0       0.013750256956796214          0.2771458952003732 0.8184603917095128 1.0000   
         H         H         1.0       0.07593530993770492           0.26803727434297103          0.8246658984216012 1.0000   
         H         H         1.0       0.9249570713632934  0.3666511523230606  0.8281878259004973 1.0000   
         H         H         1.0       0.8715930563017105  0.3276692612650656  0.8310110708898762 1.0000   
         H         H         1.0       0.9152888319287854  0.19940185577345723           0.7922385653646979 1.0000   
         H         H         1.0       0.9666283050201302  0.2393476853711256  0.7793243175881204 1.0000   
         H         H         1.0       0.9874266708423002  0.3664036196295224  0.8401097605111963 1.0000   
         H         H         1.0       0.9926875054452339  0.44730315862807907           0.8691112473475979 1.0000   
         H         H         1.0       0.9916709247470071  0.5160696798799311  0.787386431251127  1.0000   
         H         H         1.0       0.9951326612486755  0.43700179066512357           0.7628770190866679 1.0000   
         C         C         1.0       0.8961091760647492  0.04939610661019245           0.7343912416172714 1.0000   
         C         C         1.0       0.8843458189282772  0.09593237235334007           0.7345083237950546 1.0000   
         C         C         1.0       0.8512004152184153  0.10914328443535593           0.7449855046435316 1.0000   
         C         C         1.0       0.8273242530682924  0.07415374722142709           0.7531944253891083 1.0000   
         C         C         1.0       0.8420372543055369  0.025721751839546947         0.754886819846229  1.0000   
         C         C         1.0       0.8737157240151273  0.015405062101644829         0.7449981118895644 1.0000   
         H         H         1.0       0.9004540523982076  0.122813829674711   0.7261483554494966 1.0000   
         H         H         1.0       0.841787980268925   0.1460434774166133  0.7434893199208049 1.0000   
         H         H         1.0       0.8247683014341061  0.9961711675097584  0.7610579958911882 1.0000   
         H         H         1.0       0.8784883370068314  0.9759913174876157  0.7398285830695004 1.0000   
         C         C         1.0       0.7741575666711789  0.02377364663868664           0.7192011847779958 1.0000   
         C         C         1.0       0.7629078354299077  0.0424252272332688  0.7454876698040543 1.0000   
         C         C         1.0       0.7332393252899999  0.022719877270603428         0.7594977051517913 1.0000   
         C         C         1.0       0.7186269728454144  0.9812924417862314  0.7468525487531047 1.0000   
         C         C         1.0       0.7332485108075794  0.9590555748348276  0.7208542887959508 1.0000   
         C         C         1.0       0.7607045593847092  0.9825595417783148  0.7070852327907758 1.0000   
         C         C         1.0       0.7864296618381226  0.08229423030100969           0.7621389168077544 1.0000   
         C         C         1.0       0.766845742102374   0.12993337036087502           0.7506504304443281 1.0000   
         C         C         1.0       0.7376516284948411  0.1479653285822269  0.7653350862044558 1.0000   
         C         C         1.0       0.7217940670296075  0.19221770190571666           0.7570888705063501 1.0000   
         C         C         1.0       0.7347930418321585  0.21621255590139427           0.7338888173978387 1.0000   
         C         C         1.0       0.7610194553515849  0.19549460058208032           0.716104697889421  1.0000   
         C         C         1.0       0.7756884421014074  0.1508820855957923  0.7240635001183853 1.0000   
         C         C         1.0       0.7936263631361495  0.03924892772598243           0.8102080445520881 1.0000   
         C         C         1.0       0.8030232529086816  0.037519996623194274         0.8405097206219281 1.0000   
         C         C         1.0       0.8101426690484744  0.0812139604532165  0.8547708611934207 1.0000   
         C         C         1.0       0.8053577554612509  0.12472167544229018           0.8417643448826129 1.0000   
         C         C         1.0       0.7940738681867242  0.1278072872745929  0.8130615979608202 1.0000   
         C         C         1.0       0.7892518786081738  0.08411904107239421           0.7966161714698347 1.0000   
         C         C         1.0       0.8249427245153006  0.08742950619883105           0.8885152128521465 1.0000   
         C         C         1.0       0.7221125420755411  0.142294424743287   0.910025225750853  1.0000   
         C         C         1.0       0.7271166909440533  0.09206161832063509           0.9106424127380545 1.0000   
         C         C         1.0       0.7599039344920697  0.0741507329901232  0.9064929984621217 1.0000   
         C         C         1.0       0.788685671911016   0.10519208247340628           0.9048914024529647 1.0000   
         C         C         1.0       0.7837634351134065  0.15498867927429408           0.9107944137220898 1.0000   
         C         C         1.0       0.7498309702124036  0.1731358980968704  0.9116095546510372 1.0000   
         C         C         1.0       0.8574313553156379  0.12417827362934286           0.8946376896996406 1.0000   
         C         C         1.0       0.8781060242768889  0.14211375241460664           0.8723783935648751 1.0000   
         C         C         1.0       0.8991360013309108  0.1806139975409188  0.8764454079101061 1.0000   
         C         C         1.0       0.9038237989143982  0.19994073279507096           0.9049833285969179 1.0000   
         C         C         1.0       0.8892798691139774  0.17487342971739817           0.9276349689903747 1.0000   
         C         C         1.0       0.866966997747007   0.13587163713040123           0.9230498916738024 1.0000   
         C         C         1.0       0.8302184612280815  0.013674836466446738         0.92219623361499   1.0000   
         C         C         1.0       0.8477091800690798  0.9760827013766311  0.9346031849134945 1.0000   
         C         C         1.0       0.879559119657842   0.9634193355005665  0.9231442076403309 1.0000   
         C         C         1.0       0.8934228599603083  0.9834475561375623  0.8983374807290649 1.0000   
         C         C         1.0       0.8735495340300283  0.020740911876309776         0.8850889073357702 1.0000   
         C         C         1.0       0.8434491935133986  0.038371507463412335         0.8983539479178382 1.0000   
         H         H         1.0       0.7931781819993636  0.043903216257018984         0.7076812613378184 1.0000   
         H         H         1.0       0.7244257313421641  0.038081222043179874         0.7813624123838258 1.0000   
         H         H         1.0       0.6951820120567318  0.9665852499330903  0.7560053178549438 1.0000   
         H         H         1.0       0.7697869110261596  0.9672073272687269  0.686065376123607  1.0000   
         H         H         1.0       0.7311773199729106  0.13106050340068331           0.7847565233855622 1.0000   
         H         H         1.0       0.6992591988713753  0.20597635273509535           0.7686973251887942 1.0000   
         H         H         1.0       0.7730795312395304  0.21676008744966505           0.6984171205241297 1.0000   
         H         H         1.0       0.7968616930343468  0.13321151859598482           0.7103233173951742 1.0000   
         H         H         1.0       0.786639266237703   0.004166726508961993         0.7992442089429339 1.0000   
         H         H         1.0       0.806043498852435   0.0041044528613178866        0.8509131722249749 1.0000   
         H         H         1.0       0.8068467280295497  0.15845365041814324           0.8546822499580625 1.0000   
         H         H         1.0       0.7901493396032894  0.1636062322804278  0.8035131264848869 1.0000   
         H         H         1.0       0.7050032785322194  0.06830374696580566           0.9124206724814347 1.0000   
         H         H         1.0       0.7648626602948004  0.037030322007726824         0.9024946239816155 1.0000   
         H         H         1.0       0.8041992270707796  0.17892526852081053           0.9073930382374864 1.0000   
         H         H         1.0       0.7440966258744178  0.2117412897420853  0.9092231955285751 1.0000   
         H         H         1.0       0.8734848647184583  0.12893684645874082           0.8492183024122723 1.0000   
         H         H         1.0       0.9080910372533417  0.19599263048511065           0.8572763809991092 1.0000   
         H         H         1.0       0.8955070180467605  0.18737084490708328           0.9497557923097684 1.0000   
         H         H         1.0       0.853313435985017   0.12091286737104245           0.9421789139490159 1.0000   
         H         H         1.0       0.8076869035691979  0.027111276905638304         0.934538774789463  1.0000   
         H         H         1.0       0.83841372502135    0.9625844855459266  0.9551915884729144 1.0000   
         H         H         1.0       0.9172350761341048  0.9749962747244055  0.8868332842386075 1.0000   
         H         H         1.0       0.8877814010515406  0.04113272675846069           0.8698178479505129 1.0000   
         C         C         1.0       0.907281981258028   0.9174221147739385  0.08733124241265736          1.0000   
         C         C         1.0       0.9010909373095191  0.9591338673455759  0.10436664440803783          1.0000   
         C         C         1.0       0.9234708409838307  0.9972759167768925  0.10325876090023585          1.0000   
         C         C         1.0       0.9523460216183779  0.9941787232181672  0.08281250116655586          1.0000   
         C         C         1.0       0.9559137192483528  0.9526242254043941  0.06431546855584899          1.0000   
         C         C         1.0       0.9342339662059128  0.9155091146366785  0.06718230458921413          1.0000   
         H         H         1.0       0.8802216746544698  0.9609868341772729  0.12022134582028017          1.0000   
         H         H         1.0       0.9190038140239578  0.02967463012632221           0.11806596052011949          1.0000   
         H         H         1.0       0.9754769509813176  0.947126267335503   0.04792790848623585          1.0000   
         H         H         1.0       0.9364084386843399  0.884517970719262   0.05287267394610221          1.0000   
         C         C         1.0       0.008161105754995068          0.017229952503191592         0.13465548641418673          1.0000   
         C         C         1.0       0.009789382794062051          0.002167254308738764         0.10465378647868334          1.0000   
         C         C         1.0       0.026841458676951424          0.9588131658472729 0.09789393039783535          1.0000   
         C         C         1.0       0.03872853851804403           0.9293701008770134 0.11951438630710313          1.0000   
         C         C         1.0       0.0358735892041091  0.9437691616451884  0.14878377228778586          1.0000   
         C         C         1.0       0.024451706155853126          0.990549127526996  0.15661082801470433          1.0000   
         C         C         1.0       0.9839216740779558  0.02941391337481969           0.08307243616414955          1.0000   
         C         C         1.0       0.9779113775094125  0.08551842438483748           0.09137841213908945          1.0000   
         C         C         1.0       0.9476675880846822  0.11332193698574988           0.08936378417344334          1.0000   
         C         C         1.0       0.9465290988344015  0.1625470770502012  0.09451355657270634          1.0000   
         C         C         1.0       0.9775212027862034  0.18906611920484181           0.09735892909932374          1.0000   
         C         C         1.0       0.008431450664706741          0.1640053629706605 0.10032651313839387          1.0000   
         C         C         1.0       0.008286770208449479          0.11357295942308943          0.09637368523423756          1.0000   
         C         C         1.0       0.03445526602915483           0.04411231158327045          0.04548233234015964          1.0000   
         C         C         1.0       0.046938247231222974          0.05600363984751544          0.01828642787630086          1.0000   
         C         C         1.0       0.025520436948350822          0.0666112879350158 0.9955757943483025 1.0000   
         C         C         1.0       0.9898243161505295  0.058601549552700805         0.9996619458361012 1.0000   
         C         C         1.0       0.9776148938461339  0.04178583072418429           0.02611793567608145          1.0000   
         C         C         1.0       0.9987313455459373  0.03630969013194485           0.05084250505026078          1.0000   
         C         C         1.0       0.038039910166095536          0.08132131956192112          0.9631009619847032 1.0000   
         C         C         1.0       0.6498933118378639  0.14964876509622657           0.9986708117786159 1.0000   
         C         C         1.0       0.6184067700864593  0.15702155470555876           0.011405784380559503         1.0000   
         C         C         1.0       0.07944082566612298           0.1486119289408565 0.9799847891109301 1.0000   
         C         C         1.0       0.07609160981005392           0.10624184818986748          0.9650244464680787 1.0000   
         C         C         1.0       0.6227849649354074  0.08757514828242008           0.9663294115682265 1.0000   
         C         C         1.0       0.6528280701451981  0.11100844667089628           0.9774660031232141 1.0000   
         C         C         1.0       0.017463753887548616          0.12563537555742407          0.9493842040467524 1.0000   
         C         C         1.0       0.9961535738438829  0.1565219202694439  0.9649643555937137 1.0000   
         C         C         1.0       0.9785311762790226  0.19517921560398208           0.9523058277215187 1.0000   
         C         C         1.0       0.9841831232224887  0.20307904073507269           0.92277929924316   1.0000   
         C         C         1.0       0.010490292547184366          0.17656057199458558          0.9074075298396311 1.0000   
         C         C         1.0       0.02641597171796861           0.1382419389813513 0.9202857645177798 1.0000   
         C         C         1.0       0.0041414540507289654         0.02829304271291   0.923157202018644  1.0000   
         C         C         1.0       0.00021016003708473896        0.984139658759259  0.9078174500450046 1.0000   
         C         C         1.0       0.018045010255126614          0.9427036535132554 0.915401861698769  1.0000   
         C         C         1.0       0.04360642447974139           0.9470161551953414 0.9370074532564623 1.0000   
         C         C         1.0       0.05161685643902114           0.9927128023134165 0.9495939563109643 1.0000   
         C         C         1.0       0.030910231086239914          0.03267125077231636          0.9433871053442366 1.0000   
         H         H         1.0       0.988819529262932   0.04498550244051258           0.14258838157422427          1.0000   
         H         H         1.0       0.026418264352189746          0.9388854575150284 0.07714202052428532          1.0000   
         H         H         1.0       0.04504629499026391           0.890600834191194  0.11436713093801557          1.0000   
         H         H         1.0       0.021881516771620424          0.0033967547757327576        0.17908978659789673          1.0000   
         H         H         1.0       0.9245598616320564  0.09476142510948282           0.08111888034929662          1.0000   
         H         H         1.0       0.920866085713467   0.1834116259369286  0.0945519158773786 1.0000   
         H         H         1.0       0.03221486673199481           0.18387702230779854          0.10672382253570178          1.0000   
         H         H         1.0       0.03322935013368844           0.09693970357642967          0.09913378803204624          1.0000   
         H         H         1.0       0.05146803835586655           0.036998029336765104         0.06441404246096072          1.0000   
         H         H         1.0       0.07548514649750793           0.05818518118672511          0.019152931942545415         1.0000   
         H         H         1.0       0.9691444629597195  0.05988218438209425           0.9821715315754189 1.0000   
         H         H         1.0       0.9499558475546978  0.03229927183432291           0.02807024235740796          1.0000   
         H         H         1.0       0.6152288306251317  0.18190082739238084           0.030596383383355796         1.0000   
         H         H         1.0       0.05965720477100511           0.17188586915481685          0.9909120240066887 1.0000   
         H         H         1.0       0.6257709942506372  0.06257387054609387           0.9473143064845188 1.0000   
         H         H         1.0       0.6798815445010121  0.1002946027183387  0.9697708849172905 1.0000   
         H         H         1.0       0.9948431119068738  0.14855793777537332           0.988445674350345  1.0000   
         H         H         1.0       0.9566056753606474  0.2135131061612025  0.9625420736815017 1.0000   
         H         H         1.0       0.015073850949820722          0.17814289189319651          0.8841806134429674 1.0000   
         H         H         1.0       0.04737049155173767           0.12057171519251297          0.907863310922611  1.0000   
         H         H         1.0       0.9876322638966163  0.059643842637997935         0.916542500148137  1.0000   
         H         H         1.0       0.9830212239447044  0.9813913694178605  0.8886526050155978 1.0000   
         H         H         1.0       0.060489427753424474          0.9151551121741907 0.9408450345436007 1.0000   
         H         H         1.0       0.07328718977841908           0.9921453262661011 0.966324926172246  1.0000   
         C         C         1.0       0.7299727466003482  0.12085425935907787           0.027075816882751624         1.0000   
         C         C         1.0       0.7137138654891657  0.07718569326505009           0.023330408771951694         1.0000   
         C         C         1.0       0.730920755617629   0.034566765205311434         0.02858407543804109          1.0000   
         C         C         1.0       0.7670888227949026  0.035127591887206266         0.03387439693041805          1.0000   
         C         C         1.0       0.7813260415127911  0.07947716704932506           0.042133594631531324         1.0000   
         C         C         1.0       0.7633617135838944  0.122702332289083   0.036564750253772704         1.0000   
         H         H         1.0       0.6873209358154087  0.07494950747869944           0.01963570861668895          1.0000   
         H         H         1.0       0.7157839215431337  0.002658556111325039         0.024207292728749108         1.0000   
         H         H         1.0       0.8092270813924697  0.08072098941552208           0.04774611390003658          1.0000   
         H         H         1.0       0.7779324192075214  0.15585950849914088           0.03739315998699566          1.0000   
         C         C         1.0       0.8451275651348032  0.02951313781001952           0.008631808269215835         1.0000   
         C         C         1.0       0.8321126314056804  0.9924466524451114  0.02514849456916668          1.0000   
         C         C         1.0       0.8520132034617006  0.9509055351759556  0.02930773450739177          1.0000   
         C         C         1.0       0.8815923074756985  0.9443320352694814  0.013422842327754037         1.0000   
         C         C         1.0       0.8948075166361388  0.9785654384331183  0.99488125330246   1.0000   
         C         C         1.0       0.876846938805731   0.023718566723507584         0.9938633777416    1.0000   
         C         C         1.0       0.7897107880225281  0.9852922191939945  0.02996128647866425          1.0000   
         C         C         1.0       0.7798957763408734  0.9536669935140751  0.0013936970494536904        1.0000   
         C         C         1.0       0.783522637418761   0.9023509896619766  0.9992322079046208 1.0000   
         C         C         1.0       0.7774804666805878  0.8758219880744691  0.9747100054672714 1.0000   
         C         C         1.0       0.7679723231490518  0.8993628886649099  0.9489813987496997 1.0000   
         C         C         1.0       0.7615319986118344  0.9491825279433895  0.9510695265330403 1.0000   
         C         C         1.0       0.7662365463366351  0.9751891796337555  0.9768123693787671 1.0000   
         C         C         1.0       0.7947380947720264  0.9775375156962861  0.08799943197004034          1.0000   
         C         C         1.0       0.7815303388610374  0.9664845525664655  0.11449247296127316          1.0000   
         C         C         1.0       0.7523171045338941  0.9353851516858505  0.11633555733512882          1.0000   
         C         C         1.0       0.7371453752465941  0.9184994750567794  0.09018979532522575          1.0000   
         C         C         1.0       0.750009576747865   0.9319996911727637  0.06284202363358271          1.0000   
         C         C         1.0       0.7785544338513586  0.9617194001094114  0.06138631332320599          1.0000   
         C         C         1.0       0.7460792838493685  0.908025472468767   0.1463664555747169 1.0000   
         C         C         1.0       0.8493629918710548  0.8422645975281581  0.1339807696535633 1.0000   
         C         C         1.0       0.8434538413872374  0.8773325964563962  0.15642124073950484          1.0000   
         C         C         1.0       0.809877172244574   0.8920375849342391  0.16291197207344593          1.0000   
         C         C         1.0       0.7809672153304078  0.8741851435039012  0.14830540588513402          1.0000   
         C         C         1.0       0.7863571407586576  0.8341029953845505  0.12897982795415644          1.0000   
         C         C         1.0       0.8201479252517762  0.8174010521138924  0.12178016956770264          1.0000   
         C         C         1.0       0.7120908424089321  0.8733766818365446  0.14839746557870065          1.0000   
         C         C         1.0       0.6799312015570166  0.89568850688182    0.13911533752243072          1.0000   
         C         C         1.0       0.6505053422449075  0.8674030587648686  0.13440656607663484          1.0000   
         C         C         1.0       0.6512195480794469  0.8193094029826437  0.140871252000357  1.0000   
         C         C         1.0       0.6813201464510656  0.7985062404418882  0.15197274918699452          1.0000   
         C         C         1.0       0.7107263523507534  0.8255292846631771  0.15841587462792667          1.0000   
         C         C         1.0       0.7406161656805095  0.9289770701682221  0.20193005551884832          1.0000   
         C         C         1.0       0.7366186218843661  0.9600290385214906  0.22605344571780983          1.0000   
         C         C         1.0       0.7315691002842649  0.008153648075140296         0.22277140615217575          1.0000   
         C         C         1.0       0.727909920562891   0.027955970605712643         0.19565543435531824          1.0000   
         C         C         1.0       0.7299758649065102  0.9967308452336362  0.17081296289968087          1.0000   
         C         C         1.0       0.7404587868690599  0.946829827623538   0.17363146039179705          1.0000   
         H         H         1.0       0.8317110845162622  0.06263048729660281           0.003780274750462498         1.0000   
         H         H         1.0       0.842999724533859   0.9210144801239191  0.04043304406616066          1.0000   
         H         H         1.0       0.8962866863501856  0.9094308048724933  0.015019865034569646         1.0000   
         H         H         1.0       0.8876037081977897  0.051395156671881104         0.9802876970792933 1.0000   
         H         H         1.0       0.7907879816088788  0.8841908833187894  0.018293936720174653         1.0000   
         H         H         1.0       0.7757502297228028  0.8356039222125364  0.9777201058302754 1.0000   
         H         H         1.0       0.7575950535081947  0.9696904327473965  0.9308855808581358 1.0000   
         H         H         1.0       0.7680570821752721  0.014132556293027676         0.9770714361032203 1.0000   
         H         H         1.0       0.8148264142103281  0.003506249676448858         0.08799422783731803          1.0000   
         H         H         1.0       0.7938487821330356  0.9748829566063723  0.13500681550050916          1.0000   
         H         H         1.0       0.7150426087861284  0.8924124503386945  0.08980198978617038          1.0000   
         H         H         1.0       0.73574977135085    0.9198657050311976  0.04432811463199271          1.0000   
         H         H         1.0       0.8647580360656042  0.9005550909863954  0.16397936479880348          1.0000   
         H         H         1.0       0.806322334032945   0.923157232910329   0.17711838907894598          1.0000   
         H         H         1.0       0.7642821518388313  0.8160722728141425  0.11769894760439725          1.0000   
         H         H         1.0       0.8224180572891758  0.7925187918800316  0.1019192990085222 1.0000   
         H         H         1.0       0.679460901395211   0.9348350231660161  0.13524694168069945          1.0000   
         H         H         1.0       0.6256774884533889  0.8840507035909445  0.12595338926401115          1.0000   
         H         H         1.0       0.6837088923114587  0.7596411963400483  0.157567185032227  1.0000   
         H         H         1.0       0.7315458248738385  0.8090069241742215  0.16932441144040603          1.0000   
         H         H         1.0       0.7452336934419761  0.8905706543962953  0.20505925431755664          1.0000   
         H         H         1.0       0.7393787348376858  0.9446659333670931  0.24864289420684227          1.0000   
         H         H         1.0       0.7239806954716511  0.0669060999478861  0.19252588273341348          1.0000   
         H         H         1.0       0.7223609830792297  0.008450187402073706         0.1496631643428836 1.0000   
         C         C         1.0       0.6542388434973747  0.11582958134419274           0.87007894018118   1.0000   
         C         C         1.0       0.6315473120215487  0.08633622770252303           0.8849065517466799 1.0000   
         C         C         1.0       0.6241178168551276  0.03971741099285464           0.87390850972251   1.0000   
         C         C         1.0       0.6403498386945147  0.02284764246814852           0.8483894959201307 1.0000   
         C         C         1.0       0.6643214930627778  0.0527423046760811  0.8353166866768663 1.0000   
         C         C         1.0       0.6703250630709525  0.09861417000113382           0.844724045611714  1.0000   
         H         H         1.0       0.61836930112005    0.09922380159038235           0.9047060115156202 1.0000   
         H         H         1.0       0.6043065763508743  0.01826314991966793           0.8859316075822351 1.0000   
         H         H         1.0       0.6773041075717109  0.03997496421220936           0.816187554677374  1.0000   
         H         H         1.0       0.6868387549891811  0.12127147952992412           0.8321724913531845 1.0000   
         C         C         1.0       0.5719269730698443  0.9606890916463402  0.8461171754156188 1.0000   
         C         C         1.0       0.6054345326494304  0.9405185075689602  0.845611276331008  1.0000   
         C         C         1.0       0.6064056173408171  0.8903367648726235  0.8483774871707926 1.0000   
         C         C         1.0       0.5795651847261649  0.8635713006391231  0.8572276596630574 1.0000   
         C         C         1.0       0.039600976136676014          0.9076809115555836 0.8520723845735119 1.0000   
         C         C         1.0       0.041364391812038326          0.9539939147129862 0.8436988070099348 1.0000   
         C         C         1.0       0.640046043943445   0.9695471106792091  0.8371178237107293 1.0000   
         C         C         1.0       0.6762009264359757  0.9476423318687012  0.8495703569296664 1.0000   
         C         C         1.0       0.7060366606517251  0.9468877748020639  0.8343486588529085 1.0000   
         C         C         1.0       0.7360796700845971  0.9296715880387783  0.8483926226768362 1.0000   
         C         C         1.0       0.7379722954150814  0.9181681310627176  0.8784205487315823 1.0000   
         C         C         1.0       0.7065877308677198  0.9211772298486073  0.8933915160248609 1.0000   
         C         C         1.0       0.6765872795397582  0.9326087872415962  0.8790593269567837 1.0000   
         C         C         1.0       0.6170124768451133  0.9930342784747073  0.7852096893631294 1.0000   
         C         C         1.0       0.602874356708142   0.9816844340064775  0.7583263875267188 1.0000   
         C         C         1.0       0.6024276292108462  0.9347435513972927  0.7457337541300961 1.0000   
         C         C         1.0       0.6203109809413551  0.8998729805290981  0.7626483460355233 1.0000   
         C         C         1.0       0.6384349046270816  0.9137988284781762  0.7877928319941091 1.0000   
         C         C         1.0       0.6338399468013216  0.959497053677507   0.8013704251362131 1.0000   
         C         C         1.0       0.5830456032505134  0.920810072869237   0.714107266596618  1.0000   
         C         C         1.0       0.9902248118424269  0.9864642349352765  0.730011373024928  1.0000   
         C         C         1.0       0.011539449519198053          0.014773310782035587         0.7131552426411093 1.0000   
         C         C         1.0       0.04155551989359196           0.997419175791352  0.7024830745312418 1.0000   
         C         C         1.0       0.055171698201263775          0.9502104874526638 0.7079218335389719 1.0000   
         C         C         1.0       0.032865031242687914          0.9208187100576815 0.7231091914115376 1.0000   
         C         C         1.0       0.000918142990457671          0.9384806727350674 0.7354488509273397 1.0000   
         C         C         1.0       0.5840155878216575  0.8639004855896126  0.7041981024043016 1.0000   
         C         C         1.0       0.6164312131936803  0.8431400875150117  0.6956418060133305 1.0000   
         C         C         1.0       0.6209449138332028  0.7956372497670132  0.686150162652668  1.0000   
         C         C         1.0       0.5922594049115201  0.766796856046123   0.6836061470671732 1.0000   
         C         C         1.0       0.5589966271676637  0.7859499689033443  0.6890631765123214 1.0000   
         C         C         1.0       0.5553074780482691  0.8348009340369876  0.700375562955683  1.0000   
         C         C         1.0       0.5885057320852498  0.9404891340171941  0.6599992771883211 1.0000   
         C         C         1.0       0.6012918346328894  0.9623291128433422  0.6353070456369673 1.0000   
         C         C         1.0       0.627595836512681   0.9945692742570434  0.6371917346958818 1.0000   
         C         C         1.0       0.6449637059282151  0.998123456454372   0.6646578036131052 1.0000   
         C         C         1.0       0.6336456868207063  0.9739116490550904  0.6891617842870448 1.0000   
         C         C         1.0       0.6033875372203966  0.9464245371029475  0.6878515932348761 1.0000   
         H         H         1.0       0.567173083234777   0.999352600625979   0.8426335958895954 1.0000   
         H         H         1.0       0.6313371812377199  0.8716609779862631  0.849101999976233  1.0000   
         H         H         1.0       0.0684104711103215  0.8433433516239929  0.863471904151249  1.0000   
         H         H         1.0       0.018130918001534546          0.9749830546056557 0.8407025630512732 1.0000   
         H         H         1.0       0.7068060536963057  0.9559965295133167  0.8116246877907534 1.0000   
         H         H         1.0       0.7583028816689241  0.9263683762303481  0.8345231358790609 1.0000   
         H         H         1.0       0.704523220701645   0.9152115926682266  0.915837978690848  1.0000   
         H         H         1.0       0.651304136302786   0.9349040043070035  0.8901393618301962 1.0000   
         H         H         1.0       0.612658374501909   0.030653873782665375         0.7949371247224131 1.0000   
         H         H         1.0       0.5895900462066895  0.009006370813346543         0.7470061988048878 1.0000   
         H         H         1.0       0.6249414269107368  0.8636733185722445  0.7536162123269978 1.0000   
         H         H         1.0       0.6515919696726625  0.885921036058138   0.8003798916370294 1.0000   
         H         H         1.0       0.0014299707646485693         0.05016129850268114          0.7075628931718878 1.0000   
         H         H         1.0       0.5479338216811775  0.003843629830261097         0.6902436545250638 1.0000   
         H         H         1.0       0.0415654041962743  0.8852489489770797  0.7276564147426622 1.0000   
         H         H         1.0       0.9819764064803579  0.914812725154208   0.7466195187145901 1.0000   
         H         H         1.0       0.6389736026730822  0.8679385626626601  0.6989798807660659 1.0000   
         H         H         1.0       0.6450947069754882  0.7818846388005855  0.6807478340844472 1.0000   
         H         H         1.0       0.5375653132469937  0.7623971828855098  0.6858811311154933 1.0000   
         H         H         1.0       0.5285877818725037  0.8415166476336277  0.7056707788165368 1.0000   
         H         H         1.0       0.5646163387502968  0.9201949909960809  0.6577099838714595 1.0000   
         H         H         1.0       0.587606114209437   0.9554494165153858  0.6149249519575191 1.0000   
         H         H         1.0       0.666403406991499   0.02418761558658522           0.6676495401914087 1.0000   
         H         H         1.0       0.6499791955875928  0.9790821597401939  0.7081885400099628 1.0000   
         C         C         1.0       0.47918263309035647           0.4347509089928806 0.546484434638359  1.0000   
         C         C         1.0       0.4892098974070671  0.47828876433638146           0.5582857743256432 1.0000   
         C         C         1.0       0.5219176569235318  0.4958172067754891  0.5537515591774558 1.0000   
         C         C         1.0       0.5465661963799685  0.47159752859386045           0.5356036913893384 1.0000   
         C         C         1.0       0.5341877823641068  0.4303857428673492  0.5198466976348151 1.0000   
         C         C         1.0       0.502042505282259   0.41170307343952955           0.5264941289675262 1.0000   
         H         H         1.0       0.4733266675559502  0.5015940824234756  0.5743691581922896 1.0000   
         H         H         1.0       0.5286707651718514  0.5255572291553419  0.5690171379274884 1.0000   
         H         H         1.0       0.5528485533670425  0.40987522289239525           0.5037353792008799 1.0000   
         H         H         1.0       0.49662112581619927           0.3788018297349275 0.5135618141347684 1.0000   
         C         C         1.0       0.5852033498129541  0.4490944097638053  0.5980946906157429 1.0000   
         C         C         1.0       0.5890538561189036  0.43760977014507846           0.5679940739903491 1.0000   
         C         C         1.0       0.5973063839320277  0.39154069008823333           0.5595176511571011 1.0000   
         C         C         1.0       0.602730153306881   0.35484247952136155           0.5790239022724748 1.0000   
         C         C         1.0       0.6028597235079947  0.3688432814291175  0.6085291828953222 1.0000   
         C         C         1.0       0.5921227800761663  0.4140033665118281  0.6176178033758823 1.0000   
         C         C         1.0       0.5878062312413203  0.4749539935115266  0.5411102319665281 1.0000   
         C         C         1.0       0.6037872538646518  0.5249966708309506  0.5516651038715679 1.0000   
         C         C         1.0       0.6363567687233118  0.5288586424479332  0.5657843871687727 1.0000   
         C         C         1.0       0.6508350517210812  0.5723501469603584  0.5711167919418374 1.0000   
         C         C         1.0       0.6323272327974464  0.614302547515359   0.5654888065153959 1.0000   
         C         C         1.0       0.598807687142534   0.6119346034139612  0.5536984738754631 1.0000   
         C         C         1.0       0.584976885560769   0.5676310713968186  0.5462617118548554 1.0000   
         C         C         1.0       0.6011218599054903  0.48090647644214024           0.48558462503320804          1.0000   
         C         C         1.0       0.6194087707478715  0.46772210201858666           0.4604626056965374 1.0000   
         C         C         1.0       0.6490950044127544  0.4413285820302474  0.4615786128437058 1.0000   
         C         C         1.0       0.6588890084130019  0.42651059287357473           0.4888804739970381 1.0000   
         C         C         1.0       0.6413926567703456  0.43749611642082015           0.5135894350560161 1.0000   
         C         C         1.0       0.6102713303969889  0.4632953652750752  0.5130601081731154 1.0000   
         C         C         1.0       0.6713559486785209  0.4237846140255072  0.4324093427820753 1.0000   
         C         C         1.0       0.7845184868125135  0.3964522725565248  0.44847224400467095          1.0000   
         C         C         1.0       0.7691319508252537  0.4395331980039595  0.45984104107758467          1.0000   
         C         C         1.0       0.7336809064174297  0.44672947277219216           0.4548362217938105 1.0000   
         C         C         1.0       0.7117520558991423  0.41216140011530344           0.43934289081157424          1.0000   
         C         C         1.0       0.7288007792227628  0.37268367637180794           0.4280726182719315 1.0000   
         C         C         1.0       0.7640110251108925  0.364560812341808   0.43250308128770604          1.0000   
         C         C         1.0       0.6802450394513624  0.4628709766175225  0.4089682864412478 1.0000   
         C         C         1.0       0.6934780271700262  0.4472220480668894  0.38211038507763945          1.0000   
         C         C         1.0       0.6949669830782603  0.4791413908325692  0.3590483541663883 1.0000   
         C         C         1.0       0.6819850153867152  0.5257492569890562  0.36238715779692543          1.0000   
         C         C         1.0       0.6716002171924137  0.5424249293074768  0.3906513239699398 1.0000   
         C         C         1.0       0.673163303077217   0.5122057188533995  0.41388505770673145          1.0000   
         C         C         1.0       0.6262551429804405  0.3820773512113315  0.3951321595479765 1.0000   
         C         C         1.0       0.6091205111589348  0.34399650781688046           0.38230601579004947          1.0000   
         C         C         1.0       0.6101068876447133  0.30022808856643024           0.39581208507705024          1.0000   
         C         C         1.0       0.6278701085308414  0.2963011117537804  0.42246366648930755          1.0000   
         C         C         1.0       0.6455485549649077  0.33506562780410803           0.4348552981522434 1.0000   
         C         C         1.0       0.6472895127330242  0.3785994508177188  0.42044100189672684          1.0000   
         H         H         1.0       0.5802289219611031  0.48713617101215845           0.6041131353495854 1.0000   
         H         H         1.0       0.5982022628487692  0.3806274618431149  0.5367502305378544 1.0000   
         H         H         1.0       0.6086274943148098  0.31887011333416027           0.570632699266344  1.0000   
         H         H         1.0       0.5884090565075566  0.4279255169938549  0.6401316872539845 1.0000   
         H         H         1.0       0.6498711695865885  0.49525289327127536           0.5725443098991071 1.0000   
         H         H         1.0       0.6786189400121484  0.5744121657334069  0.5771431535583966 1.0000   
         H         H         1.0       0.5825831449184986  0.6423622490716822  0.5493645528369163 1.0000   
         H         H         1.0       0.5599849472272416  0.565259465968947   0.5345650773815308 1.0000   
         H         H         1.0       0.5757225060632105  0.4973525837089424  0.4827119339017949 1.0000   
         H         H         1.0       0.6119041425346885  0.48170918682709246           0.4387131472685121 1.0000   
         H         H         1.0       0.6838019960798027  0.407531711265715   0.4899772186515413 1.0000   
         H         H         1.0       0.648494095054525   0.4194835804853366  0.5335405457052855 1.0000   
         H         H         1.0       0.7844383450675378  0.46990669282264336           0.4682093177997648 1.0000   
         H         H         1.0       0.7223830054796376  0.47973984016472065           0.4637049832820507 1.0000   
         H         H         1.0       0.7159455156826899  0.3488930214034723  0.41146065692129097          1.0000   
         H         H         1.0       0.7761316915720604  0.33459656368377405           0.4222823059457275 1.0000   
         H         H         1.0       0.7010278420782731  0.4091097263363296  0.379538729579034  1.0000   
         H         H         1.0       0.7054657120068961  0.4678105129480542  0.336402222707737  1.0000   
         H         H         1.0       0.6597306548743124  0.57701268813617    0.3958174951273858 1.0000   
         H         H         1.0       0.6643970770054793  0.5275276039467562  0.4349702377016155 1.0000   
         H         H         1.0       0.6226683053253769  0.4166593616785607  0.38228463955897646          1.0000   
         H         H         1.0       0.591617327916365   0.35021050101195994           0.3625818909390145 1.0000   
         H         H         1.0       0.6313951877628137  0.25998759553463746           0.43141983364434017          1.0000   
         H         H         1.0       0.6620051024553021  0.3262726596622951  0.45333857735306926          1.0000   
         C         C         1.0       0.5795178859866841  0.4210052348925789  0.15294456113124313          1.0000   
         C         C         1.0       0.5885271674714012  0.4335451920352463  0.18159355373305514          1.0000   
         C         C         1.0       0.5691799622417587  0.4662581664369602  0.198187564644886  1.0000   
         C         C         1.0       0.5403318114955709  0.4874932929258703  0.1856367723401705 1.0000   
         C         C         1.0       0.5318324096087745  0.4773664104768725  0.15675120174123292          1.0000   
         C         C         1.0       0.5522542230773942  0.44574899832517073           0.1394572148824498 1.0000   
         H         H         1.0       0.6076932655064353  0.4184772732638819  0.19449553365204364          1.0000   
         H         H         1.0       0.5774706482405197  0.4790035569489254  0.22190417814020733          1.0000   
         H         H         1.0       0.5134413724979691  0.49663170320433564           0.142932420908476  1.0000   
         H         H         1.0       0.5433581590466066  0.43399034078535387           0.11673625430638916          1.0000   
         C         C         1.0       0.05353788163841933           0.44953104802929256          0.23540241399510878          1.0000   
         C         C         1.0       0.03774594390262975           0.4941087714338742 0.24127923272717286          1.0000   
         C         C         1.0       0.0028867423387572977         0.501888887367201  0.23286950653174934          1.0000   
         C         C         1.0       0.986036237788532   0.46950160867096125           0.2141262190952376 1.0000   
         C         C         1.0       0.003242380662520805          0.428168585054052  0.20461327633448034          1.0000   
         C         C         1.0       0.03564519379109332           0.4169010052546942 0.21720824790890397          1.0000   
         C         C         1.0       0.5179445077354656  0.5230992969649829  0.20729028488263468          1.0000   
         C         C         1.0       0.5401822894609822  0.5726555899865291  0.206120752607728  1.0000   
         C         C         1.0       0.5632450469147839  0.5880826247293023  0.22926919196982842          1.0000   
         C         C         1.0       0.5821653367156874  0.6310751728456155  0.22751199197677965          1.0000   
         C         C         1.0       0.5793842400932511  0.6582578596375562  0.2031206750823844 1.0000   
         C         C         1.0       0.557181375604918   0.6457766808440921  0.18147033038915936          1.0000   
         C         C         1.0       0.5380856749794379  0.6045521083836709  0.18279890854098038          1.0000   
         C         C         1.0       0.49887287114091194           0.531364983546473  0.2644824093138968 1.0000   
         C         C         1.0       0.004186581098839515          0.5244168056584976 0.329129299655454  1.0000   
         C         C         1.0       0.019282571231607593          0.4839881880791303 0.34091412946934013          1.0000   
         C         C         1.0       0.5102563852275617  0.4345347553223324  0.2723708796326869 1.0000   
         C         C         1.0       0.5124094634520362  0.45369776821923624           0.2448019178046923 1.0000   
         C         C         1.0       0.5113475447211872  0.5041361543867047  0.24037570471231778          1.0000   
         C         C         1.0       0.002431257085816707          0.46136766304577304          0.369669722160941  1.0000   
         C         C         1.0       0.8922879130543708  0.4180128877226238  0.35774660001456815          1.0000   
         C         C         1.0       0.915237003987688   0.4213169362003485  0.3344690769964292 1.0000   
         C         C         1.0       0.947310729899029   0.4400077123657195  0.3372846593430944 1.0000   
         C         C         1.0       0.961098227103172   0.4555462868814563  0.3653287410958951 1.0000   
         C         C         1.0       0.9380913740377022  0.45495594187956256           0.38824952069086294          1.0000   
         C         C         1.0       0.904982549110495   0.4374121140089768  0.38421330253824587          1.0000   
         C         C         1.0       0.014673102859329212          0.5044033099078382 0.39206401061613   1.0000   
         C         C         1.0       0.9922591230081852  0.5452440190258577  0.39830609281875595          1.0000   
         C         C         1.0       0.0017262017067580793         0.5822407560471247 0.41953429904660844          1.0000   
         C         C         1.0       0.6171833619048414  0.5023502075859211  0.32213298192146966          1.0000   
         C         C         1.0       0.6104527591371574  0.4574183196459013  0.3118758490749928 1.0000   
         C         C         1.0       0.5785398101338225  0.4373489196067922  0.31650397301537203          1.0000   
         C         C         1.0       0.01960899225863799           0.3971301732057073 0.4098421532700336 1.0000   
         C         C         1.0       0.0326712279398127  0.35404400202910513           0.41692680593169806          1.0000   
         C         C         1.0       0.03320065291228835           0.31463739605343083          0.3953148275699727 1.0000   
         C         C         1.0       0.024644389330765737          0.3236363766694772 0.36708828950438976          1.0000   
         C         C         1.0       0.018679996456252734          0.37181008498955226          0.3585913783073212 1.0000   
         C         C         1.0       0.014116788470912134          0.41025790853030686          0.38010343675820557          1.0000   
         H         H         1.0       0.07691482808044614           0.43645777882208114          0.24382028382707915          1.0000   
         H         H         1.0       0.990251098631153   0.5349765952583826  0.2352012846897203 1.0000   
         H         H         1.0       0.9592437000136498  0.47624531646157253           0.20961000965501272          1.0000   
         H         H         1.0       0.0458278869590385  0.3817976232291413  0.21039831564690825          1.0000   
         H         H         1.0       0.5670779299613762  0.5693411651635475  0.24942172594558143          1.0000   
         H         H         1.0       0.6007076429775985  0.6430629664074767  0.24389502931445997          1.0000   
         H         H         1.0       0.5544737571513528  0.6668364300688169  0.16107460051552702          1.0000   
         H         H         1.0       0.5223375302555221  0.5998806761609634  0.1632095482014146 1.0000   
         H         H         1.0       0.004949468422372538          0.5769953142754155 0.2954226908502747 1.0000   
         H         H         1.0       0.9804152673127637  0.5380046788232727  0.33884244019745796          1.0000   
         H         H         1.0       0.521133319488184   0.39908095639136487           0.27368303124935384          1.0000   
         H         H         1.0       0.5186371304213125  0.4270233939657923  0.22765123725454817          1.0000   
         H         H         1.0       0.9077393759604053  0.40408310288783705           0.3136693918359034 1.0000   
         H         H         1.0       0.9625262436146815  0.4442500085541     0.3175352678005043 1.0000   
         H         H         1.0       0.9462256053127575  0.4597298476434859  0.41179446397270986          1.0000   
         H         H         1.0       0.8908903544981741  0.4270589377503739  0.4045742540480509 1.0000   
         H         H         1.0       0.9669162891794443  0.5470164416225662  0.38946776669220734          1.0000   
         H         H         1.0       0.9843709376570292  0.6101186016017589  0.4283304915125015 1.0000   
         H         H         1.0       0.6286445998366968  0.44217454862027056           0.29622011321668457          1.0000   
         H         H         1.0       0.5727656481455563  0.4008986221260464  0.30660884324125054          1.0000   
         H         H         1.0       0.01896266384468781           0.4261231151902502 0.4279078036319461 1.0000   
         H         H         1.0       0.04088105357994021           0.3493248718121646 0.4399289154817349 1.0000   
         H         H         1.0       0.02509080976801248           0.29403211565626497          0.35105470038620545          1.0000   
         H         H         1.0       0.010567417623821296          0.37883089988605684          0.33516272250812346          1.0000   
         C         C         1.0       0.8288639647179938  0.30442103797542597           0.34434092910480796          1.0000   
         C         C         1.0       0.8000897450085859  0.292037385174743   0.36112235654422276          1.0000   
         C         C         1.0       0.7722932070318148  0.26519800662099585           0.34845860550691937          1.0000   
         C         C         1.0       0.7727655043625458  0.2530338519702906  0.31835639714826913          1.0000   
         C         C         1.0       0.8029893658864661  0.26235009532760656           0.30283030067081096          1.0000   
         C         C         1.0       0.8296689139903917  0.29124524174161354           0.3150495192113079 1.0000   
         H         H         1.0       0.7990942432812415  0.3081415850840743  0.3832693328249842 1.0000   
         H         H         1.0       0.7495004474574315  0.25702708230302    0.3623869577950789 1.0000   
         H         H         1.0       0.8077416221105227  0.24900116738955946           0.2789318863898942 1.0000   
         H         H         1.0       0.8537033585642813  0.3005178470619346  0.30156065984063335          1.0000   
         C         C         1.0       0.6945134115440054  0.27355995668693245           0.3235231475984731 1.0000   
         C         C         1.0       0.7059126431759318  0.2271375154100933  0.3155330491224626 1.0000   
         C         C         1.0       0.680252846251862   0.1906061865992515  0.31200217275679776          1.0000   
         C         C         1.0       0.6469073418673384  0.19958839121513797           0.3216659250521928 1.0000   
         C         C         1.0       0.635711200443986   0.2450550256225409  0.33263855192379294          1.0000   
         C         C         1.0       0.6599517626370655  0.28208641330145323           0.33214568133977035          1.0000   
         C         C         1.0       0.7455936290349807  0.218603991791713   0.30289743662661545          1.0000   
         C         C         1.0       0.7633945448196927  0.1665643339810832  0.3073462692426743 1.0000   
         C         C         1.0       0.7915865481618288  0.14722548844328337           0.2902399608077183 1.0000   
         C         C         1.0       0.8080069399853277  0.10571006737674539           0.2985313981934213 1.0000   
         C         C         1.0       0.7977704541558501  0.08170982185079871           0.32379179808275255          1.0000   
         C         C         1.0       0.7676855701260371  0.09572639022376357           0.3377618359469794 1.0000   
         C         C         1.0       0.7533557927509199  0.14066898188767776           0.33139894233130646          1.0000   
         C         C         1.0       0.741693955644684   0.2802846884762376  0.2613392501131444 1.0000   
         C         C         1.0       0.7387342379259357  0.292541274687062   0.23279404191592445          1.0000   
         C         C         1.0       0.7434150992899343  0.2581383128401392  0.2106963820722647 1.0000   
         C         C         1.0       0.7386968674224041  0.20919992299008203           0.21689773583569796          1.0000   
         C         C         1.0       0.7354685790284862  0.1976043348225036  0.24666064884087582          1.0000   
         C         C         1.0       0.7403959587218079  0.23290126554751847           0.26832551212006917          1.0000   
         C         C         1.0       0.7492975562991326  0.27663968802579053           0.17811053309692415          1.0000   
         C         C         1.0       0.6414867561757307  0.31507299201685496           0.15540198808525943          1.0000   
         C         C         1.0       0.6626913502165703  0.3484849783104521  0.17053126832427096          1.0000   
         C         C         1.0       0.696651550719904   0.3371293673707325  0.17628907013765452          1.0000   
         C         C         1.0       0.7106732527142352  0.29097385566423045           0.16876002776559276          1.0000   
         C         C         1.0       0.6871623335620419  0.2570346133887823  0.1566710170709702 1.0000   
         C         C         1.0       0.65365630594326    0.2688536001233649  0.1494053293062482 1.0000   
         C         C         1.0       0.7719448853590062  0.23961539521125713           0.15869228803880436          1.0000   
         C         C         1.0       0.8014932478906049  0.2212882530613444  0.17183752796647891          1.0000   
         C         C         1.0       0.8240276889065655  0.18877197035430637           0.15706904891973852          1.0000   
         C         C         1.0       0.8195537765109585  0.18181108449738068           0.12733921181098748          1.0000   
         C         C         1.0       0.7912415401018683  0.20160741132486482           0.11352511181349591          1.0000   
         C         C         1.0       0.7672069949918823  0.230148242721648   0.1277336051094721 1.0000   
         C         C         1.0       0.7706556051314438  0.3511033476162258  0.14927394008602074          1.0000   
         C         C         1.0       0.790156140459286   0.39216796808485105           0.14505437915798322          1.0000   
         C         C         1.0       0.8126621968241647  0.4094239396536212  0.16686393620188966          1.0000   
         C         C         1.0       0.8153895927122077  0.3842201067787083  0.19236435801751053          1.0000   
         C         C         1.0       0.7969114467880087  0.3413331837661432  0.19592905743431085          1.0000   
         C         C         1.0       0.7734247817604476  0.3240534047479215  0.1757153224796484 1.0000   
         H         H         1.0       0.7105466966446723  0.3056425998583066  0.3237249527515311 1.0000   
         H         H         1.0       0.6859949533403789  0.1532508192018147  0.3042351816845154 1.0000   
         H         H         1.0       0.6280404228361129  0.16997885353353634           0.320843402430754  1.0000   
         H         H         1.0       0.6498058194772349  0.31756084303638793           0.33552015638994676          1.0000   
         H         H         1.0       0.8057897958910438  0.16993783383936653           0.27594760594940015          1.0000   
         H         H         1.0       0.8317426688938235  0.09421573934215756           0.286127139968422  1.0000   
         H         H         1.0       0.7524225553660174  0.07573191167428314           0.3556177365558797 1.0000   
         H         H         1.0       0.7335693389827531  0.15322789377233456           0.3465273061768181 1.0000   
         H         H         1.0       0.7414552195121142  0.30714370161927973           0.2801287029590007 1.0000   
         H         H         1.0       0.7393833059970476  0.33062384501733383           0.22899849821667284          1.0000   
         H         H         1.0       0.7362447941499977  0.1811503029761895  0.20078145052055815          1.0000   
         H         H         1.0       0.7307808879519967  0.16134903299720713           0.2524153694411681 1.0000   
         H         H         1.0       0.6524827196074577  0.38370547479301603           0.17915715810268643          1.0000   
         H         H         1.0       0.7125805303655518  0.362420431523631   0.18884714200018735          1.0000   
         H         H         1.0       0.6940051786095703  0.2190227996504826  0.1505092323593518 1.0000   
         H         H         1.0       0.6371217125582603  0.24155855536637036           0.1385970994492495 1.0000   
         H         H         1.0       0.8092627621756147  0.23276496419790213           0.19440399516428264          1.0000   
         H         H         1.0       0.8470447475370584  0.1775166043703668  0.16925037414673638          1.0000   
         H         H         1.0       0.7901141339244397  0.19382940652587785           0.08950519210173671          1.0000   
         H         H         1.0       0.7489358015593128  0.24758605044752666           0.11532343941432419          1.0000   
         H         H         1.0       0.7499785273489815  0.34499093700431666           0.1335214161637087 1.0000   
         H         H         1.0       0.7840960751630337  0.41203839062966724           0.12533078390464888          1.0000   
         H         H         1.0       0.8333801533695803  0.39707492266089506           0.20915514384516148          1.0000   
         H         H         1.0       0.8014002399186307  0.31831307894092287           0.21418323016725707          1.0000   
         C         C         1.0       0.8420043069711052  0.2990374557481726  0.46792094821587055          1.0000   
         C         C         1.0       0.8347554380324703  0.27567432087247973           0.4417236188580102 1.0000   
         C         C         1.0       0.8454219537127717  0.22827192967579527           0.4355304556265164 1.0000   
         C         C         1.0       0.8686211102077188  0.206637708108191   0.4555927762940984 1.0000   
         C         C         1.0       0.876750984660633   0.23119945691545363           0.48132562934513223          1.0000   
         C         C         1.0       0.8626426555082113  0.2766812027924311  0.4880604468740641 1.0000   
         H         H         1.0       0.827072334483452   0.29623426970610045           0.42239676103574547          1.0000   
         H         H         1.0       0.8412219444768458  0.213102188692009   0.41342102439542716          1.0000   
         H         H         1.0       0.8963431253700296  0.21478452325012223           0.4961895980711041 1.0000   
         H         H         1.0       0.8702627168035568  0.2958901120364871  0.5091115068904497 1.0000   
         C         C         1.0       0.92833226001386    0.1909997402203155  0.40465387565735766          1.0000   
         C         C         1.0       0.9258977218317929  0.17658169500898815           0.43389618646689687          1.0000   
         C         C         1.0       0.9568318106732451  0.1828360301222759  0.45115949763720603          1.0000   
         C         C         1.0       0.9878418366252311  0.19334788711554368           0.43778774718065794          1.0000   
         C         C         1.0       0.9882896651132078  0.20491741719550743           0.40808705201592027          1.0000   
         C         C         1.0       0.9585618636275911  0.2027026901099768  0.3919811841855507 1.0000   
         C         C         1.0       0.8886467778998588  0.15524900972418568           0.44595995590840676          1.0000   
         C         C         1.0       0.8681906835715183  0.11931779742381518           0.42461641674788614          1.0000   
         C         C         1.0       0.8882354715251999  0.09034920154347718           0.40626248225978373          1.0000   
         C         C         1.0       0.8738300878831794  0.05890988174910472           0.38512394835914   1.0000   
         C         C         1.0       0.8382376031674883  0.053476994003321954         0.3856258565857275 1.0000   
         C         C         1.0       0.8181617877688822  0.08112630582735031           0.40561347778560236          1.0000   
         C         C         1.0       0.831885169139619   0.11099303301318415           0.42685865319221394          1.0000   
         C         C         1.0       0.8706970116667941  0.11935995572681855           0.49442235393983913          1.0000   
         C         C         1.0       0.8754826648199946  0.0960156276980204  0.5209438867153884 1.0000   
         C         C         1.0       0.90716352501838    0.07310588561358779           0.5255120495269903 1.0000   
         C         C         1.0       0.9283474830131251  0.06476025214621584           0.5003841281555782 1.0000   
         C         C         1.0       0.9230455980569064  0.08978984811958154           0.4756470415990543 1.0000   
         C         C         1.0       0.8946564700577342  0.12097910819211251           0.4734301149835477 1.0000   
         C         C         1.0       0.925338927521403   0.07086236928471101           0.5570993628917068 1.0000   
         C         C         1.0       0.9685251088566722  0.21733520111607244           0.5594536120817052 1.0000   
         C         C         1.0       0.9363087164133084  0.20630303152244822           0.5722179646496444 1.0000   
         C         C         1.0       0.9232514122184949  0.16102694688112498           0.5700449620801216 1.0000   
         C         C         1.0       0.9424231084347078  0.12327600878338996           0.5590352521166037 1.0000   
         C         C         1.0       0.9753163569627633  0.13246243731255924           0.5482377987135771 1.0000   
         C         C         1.0       0.9882888769582414  0.1798874242266467  0.5466676115709751 1.0000   
         C         C         1.0       0.9538951116908583  0.02871752023361074           0.5628522633833957 1.0000   
         C         C         1.0       0.9527650285190552  0.9808892227671663  0.5508130818904954 1.0000   
         C         C         1.0       0.9706402292040617  0.9430486913700571  0.563991664971656  1.0000   
         C         C         1.0       0.9875471805391686  0.951306275880926   0.5921897088855408 1.0000   
         C         C         1.0       0.992297566453638   0.9983623045309962  0.6012148602870445 1.0000   
         C         C         1.0       0.9771491609818382  0.03560342035180519           0.5859928740595004 1.0000   
         C         C         1.0       0.9070711356982671  0.07832741820264039           0.615089827901109  1.0000   
         C         C         1.0       0.8811538008115561  0.08994076542982442           0.6340738535933665 1.0000   
         C         C         1.0       0.8478110226070222  0.08211083921683696           0.6249904976300857 1.0000   
         C         C         1.0       0.8392507915588392  0.055584664816390246         0.5994301753657069 1.0000   
         C         C         1.0       0.8663873816923733  0.042601998374129486         0.5801493096141626 1.0000   
         C         C         1.0       0.900275443418743   0.06223822699676185           0.584912867751341  1.0000   
         H         H         1.0       0.9043783099081824  0.19039296708637463           0.39062268545002654          1.0000   
         H         H         1.0       0.9586954899607669  0.1801295959668766  0.47550609409694755          1.0000   
         H         H         1.0       0.01168808896915774           0.18800479742110554          0.45033435601425664          1.0000   
         H         H         1.0       0.9588242536492564  0.20923366107263186           0.3679948067884219 1.0000   
         H         H         1.0       0.916242547870029   0.09315718869352708           0.4071767914114771 1.0000   
         H         H         1.0       0.888247663876975   0.033719828760356396         0.37015609950431344          1.0000   
         H         H         1.0       0.7907097563441328  0.07978345458512139           0.4055781464176594 1.0000   
         H         H         1.0       0.81430215299139    0.1281247966967526  0.4432756776285852 1.0000   
         H         H         1.0       0.8461800860552328  0.13937395575316514           0.49365702671214645          1.0000   
         H         H         1.0       0.8572496190139519  0.10735063933815121           0.5393883666205435 1.0000   
         H         H         1.0       0.9542508974266023  0.0467065798865256  0.5031758879437337 1.0000   
         H         H         1.0       0.9397955362957465  0.08738840203081477           0.4587097044304139 1.0000   
         H         H         1.0       0.9241882161608042  0.23629532216332855           0.5852019224886723 1.0000   
         H         H         1.0       0.8978923986907098  0.15640224456851495           0.5794612001779667 1.0000   
         H         H         1.0       0.992661552839074   0.10436109607810012           0.5374242355512916 1.0000   
         H         H         1.0       0.014464979989269544          0.1858050772273816 0.5373310677037554 1.0000   
         H         H         1.0       0.9377236731201078  0.9753254151648858  0.530449470341734  1.0000   
         H         H         1.0       0.9711331651734302  0.9059646568143227  0.5562685802257864 1.0000   
         H         H         1.0       0.006588058832430965          0.004936697825856486         0.6216980568051503 1.0000   
         H         H         1.0       0.9824410187841519  0.07134422308295263           0.5954435598128083 1.0000   
         H         H         1.0       0.9346272796082454  0.08467616478403082           0.6227976550188848 1.0000   
         H         H         1.0       0.8907017534614319  0.10637109339558513           0.6539559390877184 1.0000   
         H         H         1.0       0.8129384967831726  0.04826413455235246           0.5938108800598451 1.0000   
         H         H         1.0       0.8597415371378069  0.027522338706968522         0.5603353183225253 1.0000   
         C         C         1.0       0.9054269668603554  0.6183444962826379  0.5280380024177078 1.0000   
         C         C         1.0       0.9077564526727426  0.633827921439516   0.500091358503842  1.0000   
         C         C         1.0       0.880832771069326   0.6613995849917153  0.4906739966784168 1.0000   
         C         C         1.0       0.8488596730583404  0.6629381966607341  0.5057566390727989 1.0000   
         C         C         1.0       0.8465175672857723  0.6375716067912132  0.5316654821144579 1.0000   
         C         C         1.0       0.8739441223917184  0.6147277158695108  0.5429551345135338 1.0000   
         H         H         1.0       0.9335946517372895  0.6324047768980025  0.4891633595096701 1.0000   
         H         H         1.0       0.8850459794879624  0.6760184082850876  0.4683079379429238 1.0000   
         H         H         1.0       0.8207523277186378  0.640868805962846   0.5424855911110733 1.0000   
         H         H         1.0       0.8726834509567845  0.5987950839915617  0.5644424408447928 1.0000   
         C         C         1.0       0.7744822979569502  0.6272494585198062  0.48859988403476595          1.0000   
         C         C         1.0       0.7807765802269896  0.6769057712840334  0.494134733878786  1.0000   
         C         C         1.0       0.7540610092061247  0.7104873766048984  0.49030247720575487          1.0000   
         C         C         1.0       0.7229275452117456  0.6941218837687443  0.4805324804179231 1.0000   
         C         C         1.0       0.7166252732547439  0.6450948296748935  0.47500258764725783          1.0000   
         C         C         1.0       0.7425587920738337  0.6135913264933105  0.4783407912450168 1.0000   
         C         C         1.0       0.8187491468647672  0.6995786801562212  0.49638455544961124          1.0000   
         C         C         1.0       0.8253307793294221  0.7305437587444812  0.46640983122657803          1.0000   
         C         C         1.0       0.8177810794318046  0.7810336038485597  0.4662718076865122 1.0000   
         C         C         1.0       0.8123407794696144  0.8020491297479506  0.4392725937618981 1.0000   
         C         C         1.0       0.8130629996794186  0.7733599250287948  0.4138678295899091 1.0000   
         C         C         1.0       0.8190241981044353  0.7244180996113354  0.41322917740178217          1.0000   
         C         C         1.0       0.8264994788184309  0.7024453843901566  0.4403130727570478 1.0000   
         C         C         1.0       0.7977285133873465  0.7455497788951359  0.5469575692838273 1.0000   
         C         C         1.0       0.8000504913303158  0.7821247617033478  0.5687256858341141 1.0000   
         C         C         1.0       0.8300355608672737  0.8132845194262167  0.570041926521551  1.0000   
         C         C         1.0       0.8574494302623903  0.800865290715488   0.5502728836734045 1.0000   
         C         C         1.0       0.8543240973228743  0.7657294767789644  0.5300107830666753 1.0000   
         C         C         1.0       0.8239232855452139  0.7386120280100061  0.5252911774265789 1.0000   
         C         C         1.0       0.829251525952062   0.8645216204592184  0.5845060790290567 1.0000   
         C         C         1.0       0.7998300230726549  0.9403430047832952  0.5023983121197909 1.0000   
         C         C         1.0       0.776131238258653   0.9201599104614684  0.5219919898849951 1.0000   
         C         C         1.0       0.7856334328816917  0.902908500583549   0.5489770266143101 1.0000   
         C         C         1.0       0.820550914117356   0.899877683950053   0.5578251571273113 1.0000   
         C         C         1.0       0.8433160409144081  0.9205396377297341  0.5385338892240923 1.0000   
         C         C         1.0       0.8335329743003494  0.9395168756719718  0.512466188393537  1.0000   
         C         C         1.0       0.8644614213746369  0.8797972836441061  0.6017476462525339 1.0000   
         C         C         1.0       0.8874927060210739  0.8447355629876095  0.6104244863236361 1.0000   
         C         C         1.0       0.9189852892967894  0.8570860647089912  0.62365819283884   1.0000   
         C         C         1.0       0.9276231105044984  0.9043168296616969  0.6284778293418793 1.0000   
         C         C         1.0       0.904508550798969   0.940282176405212   0.6221319064864189 1.0000   
         C         C         1.0       0.8744912660574481  0.9282713453004705  0.6077515639689443 1.0000   
         C         C         1.0       0.7840738882566747  0.9161279136750241  0.6180569068857903 1.0000   
         C         C         1.0       0.7579989593792994  0.9192405801853757  0.6384692213823027 1.0000   
         C         C         1.0       0.7507207495663749  0.8839140994779324  0.65804714566141   1.0000   
         C         C         1.0       0.7724915126725918  0.8442777767178856  0.6560208152817193 1.0000   
         C         C         1.0       0.7954393307418861  0.8361562092764288  0.6324542836418457 1.0000   
         C         C         1.0       0.802886312140323   0.8747810694014758  0.6129512433453993 1.0000   
         H         H         1.0       0.7940421743271262  0.5981591570924876  0.49031702442106156          1.0000   
         H         H         1.0       0.7573238942297206  0.7511228648501002  0.49484330636905327          1.0000   
         H         H         1.0       0.7027466315586278  0.7217621443616278  0.4809307912833878 1.0000   
         H         H         1.0       0.7402591533366701  0.5739395855844621  0.4724229577177655 1.0000   
         H         H         1.0       0.8151054858722149  0.8007778360942905  0.486353895406562  1.0000   
         H         H         1.0       0.8087230101021221  0.8411769401619844  0.43979610412951936          1.0000   
         H         H         1.0       0.8190816821124135  0.7051925444038533  0.3919014288699985 1.0000   
         H         H         1.0       0.8272223136101559  0.6659363297606844  0.441396902795499  1.0000   
         H         H         1.0       0.7737270725393861  0.7269198324169266  0.5465317729604309 1.0000   
         H         H         1.0       0.7779877212756047  0.793362713346169   0.5805534567999392 1.0000   
         H         H         1.0       0.8818588288957903  0.8234089854532004  0.5488996684832058 1.0000   
         H         H         1.0       0.876001082739033   0.7600852217855381  0.5142206994524651 1.0000   
         H         H         1.0       0.7492041131933151  0.9251134072787907  0.5169261096840964 1.0000   
         H         H         1.0       0.7660638251247223  0.8831316937366627  0.5613807771973957 1.0000   
         H         H         1.0       0.8708149949394856  0.9148416518017661  0.5406662947476522 1.0000   
         H         H         1.0       0.8546282217682206  0.958107562987545   0.5030566148379262 1.0000   
         H         H         1.0       0.8844609742605599  0.8063951718406932  0.605282133569607  1.0000   
         H         H         1.0       0.9389922813662392  0.8284286617411144  0.62840799729662   1.0000   
         H         H         1.0       0.9110906320093142  0.9778910334839065  0.6269009410509792 1.0000   
         H         H         1.0       0.8586063038374172  0.9548316834346002  0.5975838683251956 1.0000   
         H         H         1.0       0.7827682818532141  0.9471216465704098  0.6045139597158518 1.0000   
         H         H         1.0       0.7441317434760384  0.952458077186906   0.6390691069003377 1.0000   
         H         H         1.0       0.7710003870412039  0.8150939743753661  0.6714884807483212 1.0000   
         H         H         1.0       0.8116363382958677  0.8061002723627472  0.6304372564080859 1.0000   
         C         C         1.0       0.7722672749944619  0.728470415860033   0.22122233170445102          1.0000   
         C         C         1.0       0.7578015548883319  0.7743863906548932  0.2220568295888473 1.0000   
         C         C         1.0       0.7725828901696441  0.8125313340874313  0.23625108902719283          1.0000   
         C         C         1.0       0.80463955181947    0.8046209885008992  0.25043616714706146          1.0000   
         C         C         1.0       0.8222445586032547  0.7599674342757633  0.2459898360382977 1.0000   
         C         C         1.0       0.8062161757669191  0.7225737812941184  0.23178478639234584          1.0000   
         H         H         1.0       0.7315810338300905  0.7787935713575643  0.21650516541668902          1.0000   
         H         H         1.0       0.7562544029913035  0.8432909835682111  0.2433554550521877 1.0000   
         H         H         1.0       0.849149453433021   0.7566184479101478  0.2551292822490429 1.0000   
         H         H         1.0       0.818155613375175   0.6855465611613724  0.22833001107395223          1.0000   
         C         C         1.0       0.8507055649358616  0.8001123300955216  0.3140617822422256 1.0000   
         C         C         1.0       0.8473954370891416  0.8415835206072618  0.2972405300083998 1.0000   
         C         C         1.0       0.8682540732267029  0.8810840636262233  0.30590430372025573          1.0000   
         C         C         1.0       0.8877213498022407  0.8799132075218655  0.331265222935331  1.0000   
         C         C         1.0       0.8876064323638085  0.8400113703226689  0.34935179946112277          1.0000   
         C         C         1.0       0.869343339783548   0.8010743743208442  0.34001947239574676          1.0000   
         C         C         1.0       0.8151582579771097  0.8464207035641043  0.2747141840681883 1.0000   
         C         C         1.0       0.7840327904061198  0.8506338444829001  0.29882527779756385          1.0000   
         C         C         1.0       0.7829083569361487  0.8897095087669805  0.3197177781133468 1.0000   
         C         C         1.0       0.7747417671542539  0.8812545605137463  0.34923762237637357          1.0000   
         C         C         1.0       0.7595150295610098  0.8372074066028771  0.3567256499991095 1.0000   
         C         C         1.0       0.7521491002325493  0.8034030964488211  0.3349484673117534 1.0000   
         C         C         1.0       0.7646002108257742  0.8092478324471958  0.3064841931809923 1.0000   
         C         C         1.0       0.8549558234390001  0.8786852261885152  0.23727605121791392          1.0000   
         C         C         1.0       0.8747399018925249  0.9129828232002283  0.22897927061639792          1.0000   
         C         C         1.0       0.8663052947201015  0.9618933986682082  0.23271838793894226          1.0000   
         C         C         1.0       0.8348871386536797  0.9734603253722467  0.24828824794557403          1.0000   
         C         C         1.0       0.8146370897293363  0.9364181739840234  0.25835836418141656          1.0000   
         C         C         1.0       0.8255805595144731  0.8883553166872101  0.2534740905827803 1.0000   
         C         C         1.0       0.894804766211134   0.0051137143205981506        0.22354342413099387          1.0000   
         C         C         1.0       0.9329621686723507  0.08625994943014548           0.303887251459689  1.0000   
         C         C         1.0       0.9299958627973886  0.10890390204575429           0.27744545119562775          1.0000   
         C         C         1.0       0.9152032188105655  0.08639924156221057           0.2528556415474399 1.0000   
         C         C         1.0       0.9045153977062352  0.03803304040206257           0.25358474088367716          1.0000   
         C         C         1.0       0.9064295091896561  0.017245671809651864         0.28058662438027165          1.0000   
         C         C         1.0       0.9208577491478092  0.04002887003500444           0.30526811933921577          1.0000   
         C         C         1.0       0.8775940672800795  0.03889999873298744           0.19866821112916158          1.0000   
         C         C         1.0       0.8445248152105832  0.03327654933580848           0.1886544973248236 1.0000   
         C         C         1.0       0.8311048952931422  0.05543623650299789           0.1633542599179147 1.0000   
         C         C         1.0       0.8526733081338232  0.08226266905874846           0.14637684713890178          1.0000   
         C         C         1.0       0.886403516684955   0.089534564329962   0.15597947817035332          1.0000   
         C         C         1.0       0.8966963365154235  0.06948721221196319           0.18193519499264257          1.0000   
         C         C         1.0       0.9287800519805505  0.9590778725202618  0.181450900357079  1.0000   
         C         C         1.0       0.9529708803179678  0.9232600555964453  0.17226834746796268          1.0000   
         C         C         1.0       0.9791106365061897  0.9097922218176903  0.19078813444593082          1.0000   
         C         C         1.0       0.9815745364427386  0.9302887094964646  0.21849554092946868          1.0000   
         C         C         1.0       0.9581203317413656  0.9661031757011258  0.22743909834367612          1.0000   
         C         C         1.0       0.9292151070988642  0.9790178987607522  0.210272464468585  1.0000   
         H         H         1.0       0.8380418082562724  0.7660498899963363  0.3063331782001099 1.0000   
         H         H         1.0       0.8651693573269251  0.9149040767145593  0.2945393308041883 1.0000   
         H         H         1.0       0.901842248619535   0.9117921427442308  0.3367042542093377 1.0000   
         H         H         1.0       0.8728945008766099  0.7712952359284398  0.3538867235269931 1.0000   
         H         H         1.0       0.7962445743475949  0.922836971156919   0.3169215973835376 1.0000   
         H         H         1.0       0.7813806956185423  0.9079437131927394  0.3663879860903813 1.0000   
         H         H         1.0       0.7398634622254218  0.7699520678941093  0.3404533783036671 1.0000   
         H         H         1.0       0.7589104817933052  0.7792479228498798  0.2917065637801583 1.0000   
         H         H         1.0       0.8637016567809027  0.8429035892858182  0.23361142904195997          1.0000   
         H         H         1.0       0.9005194282932066  0.8998188109959349  0.2204271316686816 1.0000   
         H         H         1.0       0.8293482918836317  0.01382741879005267           0.25122943504175976          1.0000   
         H         H         1.0       0.7915062355169781  0.9477400152791742  0.2700403462728057 1.0000   
         H         H         1.0       0.9426189637273492  0.1456627739010954  0.2761610052916666 1.0000   
         H         H         1.0       0.9143238964177514  0.10789125624862161           0.23315278213594068          1.0000   
         H         H         1.0       0.8960923185809806  0.9809491726377423  0.2843133610653169 1.0000   
         H         H         1.0       0.9234289798876112  0.024967652231860926         0.3281500585735711 1.0000   
         H         H         1.0       0.824230468254658   0.012634649088520078         0.1978603735966718 1.0000   
         H         H         1.0       0.8038171311705301  0.049734961065891925         0.15608417390071339          1.0000   
         H         H         1.0       0.9037522074599214  0.10662863515323927           0.14114883377005927          1.0000   
         H         H         1.0       0.9229931234335722  0.07469348854569913           0.18866862798667303          1.0000   
         H         H         1.0       0.9069186080666872  0.9683274494019193  0.16713866991556284          1.0000   
         H         H         1.0       0.9515559242185708  0.9098451637889994  0.14881167713202215          1.0000   
         H         H         1.0       0.9984770297938421  0.9159375580942594  0.23427879509782126          1.0000   
         H         H         1.0       0.9618893049168988  0.9791250145113254  0.24970703079542125          1.0000   
         C         C         1.0       0.7357802021375991  0.9187178900723164  0.45119656224708   1.0000   
         C         C         1.0       0.735139756618192   0.8699368809906488  0.45920702546465114          1.0000   
         C         C         1.0       0.7041796108932057  0.8537652176933501  0.4684413837949388 1.0000   
         C         C         1.0       0.6739897457612917  0.8830841446484958  0.4710207769837244 1.0000   
         C         C         1.0       0.6745667269821276  0.9279836441956336  0.45830065509030865          1.0000   
         C         C         1.0       0.7060023662101436  0.9475291580877444  0.4488775521839148 1.0000   
         H         H         1.0       0.7588609212510957  0.8494297178686451  0.4655537393848425 1.0000   
         H         H         1.0       0.6997269082532163  0.8185189527171041  0.47794029834718943          1.0000   
         H         H         1.0       0.6502129785718894  0.9475489934917465  0.4577136426093973 1.0000   
         H         H         1.0       0.7074208292194857  0.9851060650544443  0.4416435981762897 1.0000   
         C         C         1.0       0.6606868164021091  0.942908350284771   0.5259869887663804 1.0000   
         C         C         1.0       0.6331081351055498  0.9107085385311703  0.5180887425017006 1.0000   
         C         C         1.0       0.6033496095243938  0.9149808609479879  0.5359516669464828 1.0000   
         C         C         1.0       0.5983845899516294  0.9532556171357415  0.5556237775496978 1.0000   
         C         C         1.0       0.6233482988434627  0.9862890080764456  0.5606234428444157 1.0000   
         C         C         1.0       0.6548365061772129  0.9825244511070054  0.5464211345533115 1.0000   
         C         C         1.0       0.6419978457609178  0.8693835518970562  0.493214993727269  1.0000   
         C         C         1.0       0.6472264556514434  0.8235560895789179  0.5141657957429139 1.0000   
         C         C         1.0       0.6223310241766381  0.7859891899638166  0.516945172788415  1.0000   
         C         C         1.0       0.6297198521993869  0.7448722291692952  0.5312382620846725 1.0000   
         C         C         1.0       0.6624336503809531  0.7385125217430382  0.5430478382873765 1.0000   
         C         C         1.0       0.6863126099102811  0.7774195200167128  0.543129833150323  1.0000   
         C         C         1.0       0.6786503674162598  0.8207903546768022  0.5294276501877578 1.0000   
         C         C         1.0       0.5815609385379825  0.883767923268504   0.4682187254009182 1.0000   
         C         C         1.0       0.03421694127756503           0.8592911011549589 0.5094975382765351 1.0000   
         C         C         1.0       0.02822814694188791           0.827301191817243  0.4859150163797056 1.0000   
         C         C         1.0       0.5845177526671667  0.7953553258121996  0.43783207504303456          1.0000   
         C         C         1.0       0.6136947277212436  0.8175057166975433  0.4492398262791185 1.0000   
         C         C         1.0       0.6119336182493617  0.8571759616818962  0.4683144997540479 1.0000   
         C         C         1.0       0.9901849435676543  0.8039244951694641  0.4783819397660747 1.0000   
         C         C         1.0       0.9674177002937432  0.698171367643832   0.5452798381521029 1.0000   
         C         C         1.0       0.949628742496869   0.7411209372745635  0.5462936445922848 1.0000   
         C         C         1.0       0.9596140538341028  0.7795823600038626  0.5281962584251221 1.0000   
         C         C         1.0       0.9849503977659589  0.7716602445772699  0.5055212222532858 1.0000   
         C         C         1.0       0.003708500951149274          0.7286798610517302 0.5075628439519503 1.0000   
         C         C         1.0       0.9946595351765792  0.6923907184614149  0.5267059210069581 1.0000   
         C         C         1.0       0.9877693327882376  0.7703901598025852  0.44870333588786676          1.0000   
         C         C         1.0       0.0031508953304544285         0.7843706536590758 0.4224688127698711 1.0000   
         C         C         1.0       0.9908664441619485  0.7663935984059782  0.39513063718028685          1.0000   
         C         C         1.0       0.9670088769825449  0.7284668221618018  0.39438557029254734          1.0000   
         C         C         1.0       0.9549503169867195  0.7096189165764318  0.41910853748418536          1.0000   
         C         C         1.0       0.9630965810885315  0.7321106214977905  0.4462056215217205 1.0000   
         C         C         1.0       0.9257425876324402  0.8330788943022482  0.4728160870769185 1.0000   
         C         C         1.0       0.901907615443114   0.8543596996258074  0.45510779599026224          1.0000   
         C         C         1.0       0.9125035139265832  0.884823428294767   0.4333438695616493 1.0000   
         C         C         1.0       0.946100704346547   0.9016925301952406  0.4343546853446973 1.0000   
         C         C         1.0       0.9703368482245736  0.8832950723720151  0.4541966266404631 1.0000   
         C         C         1.0       0.9620124855001285  0.8435624723299184  0.4710883079600601 1.0000   
         H         H         1.0       0.686568721374048   0.9391922042501549  0.5175619096707462 1.0000   
         H         H         1.0       0.5822869992892056  0.888364991817222   0.5307488677755015 1.0000   
         H         H         1.0       0.5742034712347491  0.9564932143055916  0.5673803964978138 1.0000   
         H         H         1.0       0.6758153060313511  0.006596995376171755         0.5524740599724012 1.0000   
         H         H         1.0       0.597333184467981   0.7845523388236438  0.5054196577111965 1.0000   
         H         H         1.0       0.6107982642747548  0.7124460880131475  0.5307115669261032 1.0000   
         H         H         1.0       0.7119257304435264  0.7716741197683895  0.5542108215480472 1.0000   
         H         H         1.0       0.6974564501230581  0.8491960920603757  0.5315714953102794 1.0000   
         H         H         1.0       0.5787843932387108  0.919869380769892   0.47940869461792657          1.0000   
         H         H         1.0       0.011293921232425674          0.8706582980763646 0.5194828290706525 1.0000   
         H         H         1.0       0.5866165468063189  0.7585984524532369  0.4279897330926146 1.0000   
         H         H         1.0       0.6372393363305207  0.7953396924409398  0.44911551893650736          1.0000   
         H         H         1.0       0.9269965236325586  0.7413309480025829  0.5614473388715658 1.0000   
         H         H         1.0       0.9448980665364514  0.8132962691606566  0.5311042231765872 1.0000   
         H         H         1.0       0.026212567648646656          0.7217490031577521 0.4935581285709366 1.0000   
         H         H         1.0       0.011347424328476796          0.6622839093947903 0.5226638003851868 1.0000   
         H         H         1.0       0.5363911842060977  0.8089091664424279  0.3849237702600912 1.0000   
         H         H         1.0       0.9988906292185539  0.7872598614202356  0.37657919904690446          1.0000   
         H         H         1.0       0.9347716629629109  0.6820202136389423  0.4185580549847534 1.0000   
         H         H         1.0       0.9538444781675265  0.7179499825924268  0.46619799573899895          1.0000   
         H         H         1.0       0.9189710475620599  0.8020700129979704  0.48489897785461344          1.0000   
         H         H         1.0       0.8759259021796539  0.8397158615530784  0.45529446127403594          1.0000   
         H         H         1.0       0.9565820739761651  0.9256821178142085  0.4180232632218418 1.0000   
         H         H         1.0       0.9964160211767595  0.8951315650542019  0.45218232257029545          1.0000   
         C         C         1.0       0.009119996758240712          0.05423232632184294          0.3277126683327087 1.0000   
         C         C         1.0       0.009037422372233372          0.034861416939673706         0.299603164153743  1.0000   
         C         C         1.0       0.030401173897726785          0.9943401721119762 0.2926360811994015 1.0000   
         C         C         1.0       0.5631353881116754  0.9395877400034813  0.3066383344957996 1.0000   
         C         C         1.0       0.561244400525231   0.9567570155393107  0.33543804594009013          1.0000   
         C         C         1.0       0.028754732870632127          0.0327478153565397 0.3494598440192976 1.0000   
         H         H         1.0       0.9936570868589697  0.047541032832683516         0.28172636158279896          1.0000   
         H         H         1.0       0.03163512263995605           0.972504176760587  0.2724091677838587 1.0000   
         H         H         1.0       0.5802650035955071  0.944482475020607   0.3523480276163462 1.0000   
         H         H         1.0       0.02841121462782059           0.05220106151274839          0.3709502220946214 1.0000   
         C         C         1.0       0.6189657498171913  0.9778987456819883  0.25521367859759597          1.0000   
         C         C         1.0       0.6199544043753743  0.9583320960737505  0.28297843143934504          1.0000   
         C         C         1.0       0.6416040319520468  0.9804577507668232  0.3039398417052593 1.0000   
         C         C         1.0       0.6670545172428687  0.01282175443340905           0.2956732743619813 1.0000   
         C         C         1.0       0.6680830741109374  0.027671392415992813         0.2656503528639753 1.0000   
         C         C         1.0       0.643403225657316   0.010033219857796372         0.24623681178088183          1.0000   
         C         C         1.0       0.5969410589337489  0.9134319596317352  0.29318786243447714          1.0000   
         C         C         1.0       0.5870074362845716  0.8749741130881937  0.26697881472195545          1.0000   
         C         C         1.0       0.6142287039826365  0.8568633160849097  0.24819653677181036          1.0000   
         C         C         1.0       0.6110398405069457  0.814207272272028   0.23173350109211222          1.0000   
         C         C         1.0       0.5785557164510681  0.7945361597160367  0.2275870778483016 1.0000   
         C         C         1.0       0.5514079148622018  0.8091220363617042  0.24593990952940203          1.0000   
         C         C         1.0       0.5553246433859174  0.8480738953800839  0.2651623606162659 1.0000   
         C         C         1.0       0.6503890846611211  0.8627903573543995  0.3100888057651314 1.0000   
         C         C         1.0       0.6618342960788229  0.8160132888091207  0.3170022099961364 1.0000   
         C         C         1.0       0.6393147763820045  0.7835492096360872  0.3301760400863469 1.0000   
         C         C         1.0       0.6082575218023909  0.8043191558799468  0.34234112797720906          1.0000   
         C         C         1.0       0.5955012841257628  0.8456062416932651  0.3323406852934429 1.0000   
         C         C         1.0       0.6151160091604523  0.8769591492714826  0.31538061932465866          1.0000   
         C         C         1.0       0.6446200337504453  0.7259095001331067  0.3285124644110707 1.0000   
         C         C         1.0       0.7167590338458     0.6744212526969535  0.25696489834294045          1.0000   
         C         C         1.0       0.721370429715784   0.6590133918392087  0.2847466743596328 1.0000   
         C         C         1.0       0.6978963969414684  0.6727968235791802  0.30744797419314024          1.0000   
         C         C         1.0       0.6725853388836893  0.7078947996008707  0.30347848322629   1.0000   
         C         C         1.0       0.6692759115788913  0.7237347241637143  0.27456233970792615          1.0000   
         C         C         1.0       0.6904183996368407  0.705231153184067   0.2518185218398658 1.0000   
         C         C         1.0       0.6111207529923838  0.7002121138805213  0.31536020538156534          1.0000   
         C         C         1.0       0.5898446535541738  0.7245194474493316  0.29564625948201384          1.0000   
         C         C         1.0       0.5571342337784069  0.7079024464330896  0.29047540167951796          1.0000   
         C         C         1.0       0.5459002815412202  0.6651847910604547  0.3041397362720397 1.0000   
         C         C         1.0       0.5690942413619517  0.6356969256077691  0.31595701870819487          1.0000   
         C         C         1.0       0.6030822602061098  0.6519708191271512  0.3208042335499935 1.0000   
         C         C         1.0       0.6189880860835368  0.7041732014251088  0.3806389794653005 1.0000   
         C         C         1.0       0.6215902669004727  0.6851997256379233  0.40857350198811954          1.0000   
         C         C         1.0       0.6539090913973687  0.6837072850665046  0.4219888990518006 1.0000   
         C         C         1.0       0.6826675190926755  0.6992079384548655  0.4064871189314762 1.0000   
         C         C         1.0       0.6794638739857285  0.7103535778177295  0.37742446302819854          1.0000   
         C         C         1.0       0.6481896535908287  0.7118838216981546  0.36323813789032694          1.0000   
         H         H         1.0       0.6006885206314939  0.9649029704982847  0.23861375754154798          1.0000   
         H         H         1.0       0.638996212445486   0.9710008057641561  0.32730109845509375          1.0000   
         H         H         1.0       0.6868778759238328  0.021790559696730494         0.31230627271335365          1.0000   
         H         H         1.0       0.6422859257660157  0.022988876840734473         0.22274726880494258          1.0000   
         H         H         1.0       0.640459514947882   0.8734356175052792  0.24996672585033222          1.0000   
         H         H         1.0       0.6328882041227645  0.8035902131851025  0.22054421657227147          1.0000   
         H         H         1.0       0.5260704903686539  0.7937955931016873  0.24551768824069609          1.0000   
         H         H         1.0       0.5329091489177322  0.8573288003025246  0.27971423167660014          1.0000   
         H         H         1.0       0.6664727345022099  0.8814473961044369  0.2954704762301335 1.0000   
         H         H         1.0       0.68774814912698    0.8057646049447472  0.3083346620303497 1.0000   
         H         H         1.0       0.5868503745455896  0.7831284970570874  0.35011173193429374          1.0000   
         H         H         1.0       0.5685307407085379  0.8539428515790173  0.33828135705070494          1.0000   
         H         H         1.0       0.7415979083413216  0.6345923968903932  0.2892359301156827 1.0000   
         H         H         1.0       0.7022328113951228  0.6531191446568686  0.3281119356960829 1.0000   
         H         H         1.0       0.6501162015354348  0.7499364105364886  0.2674068486753968 1.0000   
         H         H         1.0       0.6894354306235053  0.7229935670167736  0.23164028658888974          1.0000   
         H         H         1.0       0.5962993734640919  0.7610940459362354  0.2900356702566413 1.0000   
         H         H         1.0       0.0013614880472565538         0.7352584051364535 0.31316654685795786          1.0000   
         H         H         1.0       0.5587352628036156  0.6059398674121784  0.32958055658435237          1.0000   
         H         H         1.0       0.6201805360618342  0.632891492233948   0.33502879838226707          1.0000   
         H         H         1.0       0.5948630764366949  0.7096392066355426  0.37018833968197734          1.0000   
         H         H         1.0       0.6003788319280406  0.6714163544306497  0.4216347490107559 1.0000   
         H         H         1.0       0.7080963707905232  0.7010924745795853  0.41703775976304136          1.0000   
         H         H         1.0       0.701328562876179   0.7205937786385176  0.36543139758479637          1.0000   
         C         C         1.0       0.9520003619269257  0.7056483600844057  0.36617527947455714          1.0000   
         C         C         1.0       0.9758347167985708  0.6668280568276064  0.3511405741193423 1.0000   
         H         H         1.0       0.9254433761467387  0.6899077273378691  0.3680087297914675 1.0000   
         H         H         1.0       0.9482933277856821  0.7400323966834804  0.35383246623772063          1.0000   
         H         H         1.0       0.9659350270585028  0.6576937366843454  0.32931799603772316          1.0000   
         H         H         1.0       0.9743445564528046  0.6326621195824276  0.3629425668940344 1.0000   
         C         C         1.0       0.7514284641842682  0.6857484381460045  0.20871691583122087          1.0000   
         C         C         1.0       0.7388817549645208  0.6510475642047125  0.23178051929099583          1.0000   
         H         H         1.0       0.7294049731976434  0.698462199505311   0.19629463879890802          1.0000   
         H         H         1.0       0.7658252816492143  0.6640186076861115  0.19057121797866963          1.0000   
         H         H         1.0       0.7611488832610286  0.6324069343481139  0.24012914441401373          1.0000   
         H         H         1.0       0.7232349553961568  0.6201474661957859  0.2233331091621985 1.0000   
         C         C         1.0       0.9908453030714973  0.10476361234482257           0.3315639179280226 1.0000   
         C         C         1.0       0.9514886907244229  0.10873103840816323           0.33228852723485897          1.0000   
         H         H         1.0       0.003602366231095333          0.1290197491749394 0.31500317382106263          1.0000   
         H         H         1.0       0.0009344403533695367         0.12188939520656561          0.35223377039310283          1.0000   
         H         H         1.0       0.9470114378645913  0.14906210957242472           0.3383620570526636 1.0000   
         H         H         1.0       0.9422421639635714  0.08808714874417033           0.3502891950890422 1.0000   
         C         C         1.0       0.9070411433615005  0.846103458629326   0.3797664716855122 1.0000   
         C         C         1.0       0.8922804115146065  0.8838859992953321  0.4033888108543087 1.0000   
         H         H         1.0       0.9056864647840436  0.8108599930655346  0.388569205357065  1.0000   
         H         H         1.0       0.9350536865165539  0.8554059750484749  0.3754749443996848 1.0000   
         H         H         1.0       0.8970981929855868  0.9187047578916315  0.39168015975027387          1.0000   
         H         H         1.0       0.8642680710298506  0.8792322965193342  0.40742947936687096          1.0000   
         C         C         1.0       0.6828403349522865  0.624790537624332   0.4620488636224465 1.0000   
         C         C         1.0       0.6535886584779085  0.6629288276367923  0.45383225971412605          1.0000   
         H         H         1.0       0.6888582920697816  0.5995706895176477  0.44283365515406664          1.0000   
         H         H         1.0       0.6751061267219638  0.5965904903104711  0.47691122577831013          1.0000   
         H         H         1.0       0.6536723288696422  0.6954507126499194  0.46916810823286265          1.0000   
         H         H         1.0       0.6268388721977955  0.646893746291895   0.45816382957759716          1.0000   
         C         C         1.0       0.7719592114627293  0.9445569911890284  0.44921975733859004          1.0000   
         C         C         1.0       0.7879395489750806  0.9705881264235299  0.4765987363505203 1.0000   
         H         H         1.0       0.7934803475526705  0.9177728898115648  0.44183049936867846          1.0000   
         H         H         1.0       0.7737193183521417  0.9721366251340413  0.43158189060712415          1.0000   
         H         H         1.0       0.7677006738394082  0.9947310131973343  0.48412417424396137          1.0000   
         H         H         1.0       0.8095424774309093  0.9946031289628974  0.4666209409677667 1.0000   
         C         C         1.0       0.9407696803255584  0.6083253961754786  0.5420870998313081 1.0000   
         C         C         1.0       0.9536540238701333  0.6535385481595766  0.5613557003110768 1.0000   
         H         H         1.0       0.9392668546283743  0.5763522133338331  0.5558469884019243 1.0000   
         H         H         1.0       0.9601523745854359  0.5978732901979802  0.5249115529958228 1.0000   
         H         H         1.0       0.9745687565800837  0.6406326646501537  0.5764149736922096 1.0000   
         H         H         1.0       0.932427159903672   0.664165949798596   0.5751840726865166 1.0000   
         C         C         1.0       0.802309254738391   0.7962236623540297  0.3859182768900782 1.0000   
         C         C         1.0       0.7659387336196011  0.8166873407546648  0.38756498903997605          1.0000   
         H         H         1.0       0.80656374697063    0.7698772034317755  0.36755509346537724          1.0000   
         H         H         1.0       0.8207301531581185  0.8265733420199209  0.3822512945492677 1.0000   
         H         H         1.0       0.761610816790557   0.8440968687203727  0.40499848800451443          1.0000   
         H         H         1.0       0.7457012591732923  0.7871984548881944  0.39230899597353885          1.0000   
         C         C         1.0       0.9933294038279522  0.909776319844951   0.6135317950755691 1.0000   
         C         C         1.0       0.9650156452505765  0.9144656141492443  0.6388641389633484 1.0000   
         H         H         1.0       0.9922783674519938  0.8707812907834778  0.6039506760795115 1.0000   
         H         H         1.0       0.01908890399617591           0.9087324317725131 0.6248428114855088 1.0000   
         H         H         1.0       0.9675447507707774  0.9514110743925855  0.6499524711747746 1.0000   
         H         H         1.0       0.9673296700826883  0.8884415166877623  0.6574849542084504 1.0000   
         C         C         1.0       0.8456945388232693  0.09859135452174496           0.115311340134762  1.0000   
         C         C         1.0       0.8503693980852788  0.1549827872359091  0.11119052028945549          1.0000   
         H         H         1.0       0.8209683335537592  0.08551823904912124           0.10703227663748686          1.0000   
         H         H         1.0       0.8629550287404615  0.07860008450626092           0.09857944117500347          1.0000   
         H         H         1.0       0.8514474845394809  0.16611862295443722           0.08839728755472276          1.0000   
         H         H         1.0       0.8762599833640888  0.16891848290110675           0.11940477919686387          1.0000   
         C         C         1.0       0.8177556808689875  0.01983326642342487           0.36419173338842753          1.0000   
         C         C         1.0       0.8181938530464473  0.036100206140274205         0.3311142357344589 1.0000   
         H         H         1.0       0.8333040828099081  0.9853463412521959  0.3657449293774138 1.0000   
         H         H         1.0       0.7911783556349425  0.0116292267931144  0.3730020903930318 1.0000   
         H         H         1.0       0.8057450632887838  0.005134330457581716         0.31781835324411684          1.0000   
         H         H         1.0       0.8475134519394171  0.036044218458462396         0.32503924008028745          1.0000   
         C         C         1.0       0.5718219930664014  0.7500441414343278  0.20730956311209453          1.0000   
         C         C         1.0       0.5972875378721545  0.7064748897667098  0.20477827597109732          1.0000   
         H         H         1.0       0.5434389643730091  0.7405968083656692  0.21051286596899255          1.0000   
         H         H         1.0       0.5644596931269842  0.7646038544942533  0.18645765940626605          1.0000   
         H         H         1.0       0.6155322338906284  0.7087972871158386  0.22439852871227095          1.0000   
         H         H         1.0       0.6148648531749595  0.7048304162444092  0.18686782325296625          1.0000   
         C         C         1.0       0.041715525278040344          0.2639465103115306 0.40581436138154503          1.0000   
         C         C         1.0       0.023882315945067845          0.2164016712023421 0.394085198404811  1.0000   
         H         H         1.0       0.03714565653141744           0.2653263659837389 0.4298136804081936 1.0000   
         H         H         1.0       0.07099730932868975           0.2601266032028274 0.40519658386026836          1.0000   
         H         H         1.0       0.0410158262296032  0.18846439273349674           0.3992927000998911 1.0000   
         H         H         1.0       0.020883526422998733          0.2136994654113436 0.370420246834507  1.0000   
         C         C         1.0       0.8603502627712248  0.3334862926827391  0.3574105245104147 1.0000   
         C         C         1.0       0.8586545073987347  0.3895032595509861  0.35398649240993774          1.0000   
         H         H         1.0       0.8669402200574375  0.3249044926181497  0.3795843775545946 1.0000   
         H         H         1.0       0.8849313416436941  0.3183447685817403  0.3439979948519649 1.0000   
         H         H         1.0       0.8373739857761688  0.40728546228182366           0.3676219408517397 1.0000   
         H         H         1.0       0.8485979013800283  0.39405215743344973           0.33029874954178107          1.0000   
         C         C         1.0       0.6001044587133345  0.38602149728764346           0.13393285777294286          1.0000   
         C         C         1.0       0.6056415516005977  0.33236646103948414           0.14653656820527197          1.0000   
         H         H         1.0       0.5883590569940704  0.3798501664525408  0.11236877700212584          1.0000   
         H         H         1.0       0.6259356070999731  0.40304714541559183           0.13017599454529868          1.0000   
         H         H         1.0       0.5955578742909272  0.3054800523325743  0.12968056665156294          1.0000   
         H         H         1.0       0.5866237412633499  0.32671984758487466           0.1660337670323321 1.0000   
         C         C         1.0       0.6515027089852864  0.6633092722522134  0.5741131970751333 1.0000   
         C         C         1.0       0.6730637747171059  0.685713255311691   0.5505851459900042 1.0000   
         H         H         1.0       0.6297077968925185  0.6864342984739442  0.5811221820137195 1.0000   
         H         H         1.0       0.6652344640604532  0.6589309158723836  0.5949616350278412 1.0000   
         H         H         1.0       0.6736624057592102  0.6612165146172811  0.5301749260251473 1.0000   
         H         H         1.0       0.7015062688197452  0.6859412161128309  0.5571114107871288 1.0000   
         C         C         1.0       0.6760052551296984  0.5554626336048031  0.33338715248137263          1.0000   
         C         C         1.0       0.6497215053134617  0.528924499688631   0.31202751808945456          1.0000   
         H         H         1.0       0.6646834467167899  0.5892078833401532  0.34059431001178164          1.0000   
         H         H         1.0       0.7014919091911587  0.5672466342724691  0.32375841698469215          1.0000   
         H         H         1.0       0.6684552931784973  0.5037285023411094  0.2993433782655413 1.0000   
         H         H         1.0       0.6401126936630125  0.5546799201343307  0.2956498911287971 1.0000   
         C         C         1.0       0.599898975890325   0.2554810248181289  0.34457367630001967          1.0000   
         C         C         1.0       0.5969104402812738  0.2542063447198899  0.37934846740519085          1.0000   
         H         H         1.0       0.5837358594985874  0.2257021337098037  0.3335125864742799 1.0000   
         H         H         1.0       0.590768033570807   0.28865125556730814           0.33514808583806543          1.0000   
         H         H         1.0       0.6116974372908843  0.2221683967815223  0.3890789731471283 1.0000   
         H         H         1.0       0.5703612342534505  0.2481290473498109  0.3882164869353822 1.0000   
         C         C         1.0       0.449107741831703   0.40289122415421247           0.559249814646566  1.0000   
         C         C         1.0       0.9819152300914918  0.2685980792037991  0.5596002050848702 1.0000   
         H         H         1.0       0.43382228368337084           0.38219218245892955          0.542220185177117  1.0000   
         H         H         1.0       0.43119422108493416           0.4315211383072237 0.5665084705504706 1.0000   
         H         H         1.0       0.9766908342070396  0.28770327387671313           0.5812184539849929 1.0000   
         H         H         1.0       0.011142821972817796          0.27267449907173974          0.5585357253331874 1.0000   
         C         C         1.0       0.8291893366632765  0.34965915100432815           0.47515839357780193          1.0000   
         C         C         1.0       0.8241273759349682  0.3860483448335287  0.4502549461986442 1.0000   
         H         H         1.0       0.8067658715955708  0.34707076007425    0.49269233463385226          1.0000   
         H         H         1.0       0.8482680475466183  0.367918641543828   0.4906747982904265 1.0000   
         H         H         1.0       0.837861231630529   0.4209560083314658  0.45452818434923187          1.0000   
         H         H         1.0       0.8311368856164956  0.3732968431677867  0.4286042594580317 1.0000   
         C         C         1.0       0.6405440293180684  0.0235986498978491  0.6120649835829244 1.0000   
         C         C         1.0       0.6180903790853005  0.028087409108662698         0.5839462267822952 1.0000   
         H         H         1.0       0.6487415863057457  0.05996151748554257           0.6206674887384184 1.0000   
         H         H         1.0       0.666972698614554   0.006747566947275185         0.6061813203155495 1.0000   
         H         H         1.0       0.6280758750656082  0.05660464055019143           0.5713102864188507 1.0000   
         H         H         1.0       0.5900190882838006  0.04077876561920246           0.5870561979882659 1.0000   
         C         C         1.0       0.6950232439279483  0.06552240679174835           0.2580863549954053 1.0000   
         C         C         1.0       0.7310714560438805  0.04228924771361586           0.25101461765931105          1.0000   
         H         H         1.0       0.6868574455693851  0.08597697400799557           0.23856168096237476          1.0000   
         H         H         1.0       0.6939222895028709  0.09283184437809623           0.27735382959653937          1.0000   
         H         H         1.0       0.7413362180529017  0.022816171094718344         0.27146504604943955          1.0000   
         H         H         1.0       0.7502047497829573  0.07501822668780611           0.2508775936268207 1.0000   
         C         C         1.0       0.7661944771824867  0.868157181436606   0.9211254755209707 1.0000   
         C         C         1.0       0.7699157381720141  0.895351005870358   0.8917332043260923 1.0000   
         H         H         1.0       0.7867849954005477  0.8420186614698131  0.9210723518046036 1.0000   
         H         H         1.0       0.7406808088510924  0.8513715392337718  0.9201960794841876 1.0000   
         H         H         1.0       0.7791449242242723  0.8705530603298973  0.8749890705221037 1.0000   
         H         H         1.0       0.7910496714952314  0.9217163254643749  0.8967515019252585 1.0000   
         C         C         1.0       0.009776622011933078          0.87790256678548   0.17873046127071196          1.0000   
         C         C         1.0       0.04375327733695378           0.9075536591574656 0.1740950312545648 1.0000   
         H         H         1.0       0.012483924597116669          0.8543255643259005 0.19691639562322727          1.0000   
         H         H         1.0       0.0017905012980357071         0.8537447168197169 0.15930603385431807          1.0000   
         H         H         1.0       0.06623952193112936           0.8819673135436576 0.16829045683297994          1.0000   
         H         H         1.0       0.053717635312620304          0.9313294052794882 0.19316973641052415          1.0000   
         C         C         1.0       0.00835454457381668           0.8910300283735249 0.9013030963776166 1.0000   
         C         C         1.0       0.006925067088594528          0.8896254107249393 0.8678026723273571 1.0000   
         H         H         1.0       0.983111995684703   0.8808486269580273  0.9092166183757053 1.0000   
         H         H         1.0       0.02739161099841292           0.8645851414810779 0.9098339537958297 1.0000   
         H         H         1.0       0.9847686177386502  0.9090771289586554  0.8580024355052216 1.0000   
         H         H         1.0       0.0036529605971660217         0.852477506519102  0.8583836651316256 1.0000   
         C         C         1.0       0.8808453451526933  0.8750587176428392  0.08841247762327889          1.0000   
         C         C         1.0       0.8850268174938334  0.8431878048909933  0.1157039865733198 1.0000   
         H         H         1.0       0.8560473387485323  0.893871161143651   0.08900560936259494          1.0000   
         H         H         1.0       0.87943996523911    0.8535074582429774  0.06787867062387928          1.0000   
         H         H         1.0       0.9044588543815526  0.8555015908187247  0.13250478209194666          1.0000   
         H         H         1.0       0.8957141811534851  0.808039649216076   0.10691014292167711          1.0000   
         C         C         1.0       0.7172979108863069  0.1631653257893867  0.009479314368654679         1.0000   
         C         C         1.0       0.6801502389501652  0.1806991135453011  0.01217515807880809          1.0000   
         H         H         1.0       0.731881913974564   0.19567660268310322           0.017501677956848205         1.0000   
         H         H         1.0       0.72282276303988    0.1586164944052281  0.9867765350714643 1.0000   
         H         H         1.0       0.677351526198472   0.2145268484556902  0.00229455253774824          1.0000   
         H         H         1.0       0.6775382791978194  0.18730943331219527           0.036310572807644936         1.0000   
         C         C         1.0       0.7227901446494074  0.9072441342434477  0.7130176007949057 1.0000   
         C         C         1.0       0.7190571925241919  0.8891770051505647  0.6801299257506479 1.0000   
         H         H         1.0       0.743839485549214   0.8861591330070749  0.7231915059270867 1.0000   
         H         H         1.0       0.6965926188439058  0.8981340096103436  0.7236428559691127 1.0000   
         H         H         1.0       0.7023847685419542  0.9168707333961338  0.6687683526858287 1.0000   
         H         H         1.0       0.7083979352224242  0.8526231273711625  0.6811635314445192 1.0000   
         C         C         1.0       0.9077771505548732  0.9362903252856133  0.9439593710318472 1.0000   
         C         C         1.0       0.9234747840539523  0.9662087098720454  0.9710682594278672 1.0000   
         H         H         1.0       0.894983171571219   0.9055295055988082  0.9531356667429871 1.0000   
         H         H         1.0       0.92885987355328    0.918401946913045   0.9309804245875011 1.0000   
         H         H         1.0       0.943807472628064   0.9433580699711985  0.980450700399318  1.0000   
         H         H         1.0       0.9378262180104052  0.9983348171095727  0.9613410616893565 1.0000   
         C         C         1.0       0.6867036632717002  0.16525006251847285           0.9138988172536827 1.0000   
         C         C         1.0       0.6630552964754739  0.16493464637537694           0.8846313956119611 1.0000   
         H         H         1.0       0.6908620726032297  0.2035189377857039  0.9230281828424831 1.0000   
         H         H         1.0       0.6702807554230664  0.14889416628246574           0.9319494419299432 1.0000   
         H         H         1.0       0.6783566133924724  0.18630469426797905           0.8691886913622892 1.0000   
         H         H         1.0       0.6399700815260664  0.18925466113755787           0.8907078516577674 1.0000   
         C         C         1.0       0.9308537222000409  0.03197626246619545           0.7205500707132901 1.0000   
         C         C         1.0       0.9541273151074833  0.005722229285629821         0.7422073552429606 1.0000   
         H         H         1.0       0.9476655451669117  0.06126607016574548           0.7112096954048897 1.0000   
         H         H         1.0       0.9254162488572617  0.009020924290977339         0.6993711289204413 1.0000   
         H         H         1.0       0.9404294806899548  0.971569394051703   0.7490659719683019 1.0000   
         H         H         1.0       0.9603763482634655  0.03038392609806162           0.7617141028028916 1.0000   
         C         C         1.0       0.9222579955294018  0.2470274238441669  0.912431833232862  1.0000   
         C         C         1.0       0.9624852447375463  0.24031552809065607           0.9058270225036701 1.0000   
         H         H         1.0       0.9220656172122058  0.25681309840100636           0.9351044037338844 1.0000   
         H         H         1.0       0.9100097187283712  0.2723602154621635  0.89664609958337   1.0000   
         H         H         1.0       0.9738316151522977  0.27605794788249877           0.9130087603375362 1.0000   
         H         H         1.0       0.9663066879159418  0.2385997803793132  0.8805471376561668 1.0000   
         C         C         1.0       0.8171382295387126  0.10228200100908583           0.6447952336630818 1.0000   
         C         C         1.0       0.8100700477894249  0.15532377807910214           0.6383759835940417 1.0000   
         H         H         1.0       0.7962410303284743  0.07779357275342509           0.6388543644950334 1.0000   
         H         H         1.0       0.8232088109182644  0.09991340784897065           0.668805147061117  1.0000   
         H         H         1.0       0.7842068271534954  0.16530615090325118           0.6469168957722234 1.0000   
         H         H         1.0       0.8110381352800385  0.16029386055135003           0.6146914748422325 1.0000   
         C         C         1.0       0.7322083366993953  0.31041669069044114           0.7387967818735548 1.0000   
         C         C         1.0       0.7183972794405987  0.26338806568676887           0.7233878015730898 1.0000   
         H         H         1.0       0.733566177578557   0.3016578386124578  0.7632927881645127 1.0000   
         H         H         1.0       0.7152309002656565  0.3439791743468672  0.7375348292680808 1.0000   
         H         H         1.0       0.7220776899154374  0.2670248769135245  0.6995466325888231 1.0000   
         H         H         1.0       0.6891949542187963  0.2621754905991836  0.7256106771054375 1.0000   
         C         C         1.0       0.831366326745254   0.45609770080772033           0.16317083848428757          1.0000   
         C         C         1.0       0.8686273145657779  0.45177549222491303           0.15151568612045554          1.0000   
         H         H         1.0       0.8155949813500112  0.48373989815123364           0.1520245176035326 1.0000   
         H         H         1.0       0.8344161801860737  0.47224624255003933           0.1867786393423997 1.0000   
         H         H         1.0       0.8825481910828981  0.4235836687160048  0.16223218426661218          1.0000   
         H         H         1.0       0.8828579751215895  0.48667188475357476           0.15712995013628833          1.0000   
         C         C         1.0       0.9784491653237485  0.24622146462068126           0.10516978869941163          1.0000   
         C         C         1.0       0.002933223592341605          0.27535308223284294          0.0859214845602132 1.0000   
         H         H         1.0       0.9510530410988212  0.25949704055569683           0.10533934279177684          1.0000   
         H         H         1.0       0.9893974168280796  0.25166557871173556           0.12779705677045422          1.0000   
         H         H         1.0       0.02326093980623578           0.2503212727087889 0.07822916105247657          1.0000   
         H         H         1.0       0.017014724597899322          0.3011096602545385 0.10317862085360274          1.0000   
         C         C         1.0       0.8206311603366868  0.25969039338240774           0.8207723165166045 1.0000   
         C         C         1.0       0.855293769006491   0.23234371687542402           0.8122676236218045 1.0000   
         H         H         1.0       0.7959355776125411  0.2376637621226171  0.8173999803944916 1.0000   
         H         H         1.0       0.8188037438261028  0.2884059426986707  0.8037610371898558 1.0000   
         H         H         1.0       0.8532088902971651  0.2173255261439566  0.7887479647330918 1.0000   
         H         H         1.0       0.8549263867603328  0.20082237783406637           0.82607964276212   1.0000   
         C         C         1.0       0.9845805257228749  0.3932283329645832  0.18216511042461217          1.0000   
         C         C         1.0       0.9664788458619489  0.41549092223387285           0.15510635771083922          1.0000   
         H         H         1.0       0.0018289215013034266         0.36803179641444683          0.17049670543621182          1.0000   
         H         H         1.0       0.964027147593335   0.3732177906946405  0.19385501478750847          1.0000   
         H         H         1.0       0.9589122012522537  0.38658574311132166           0.1377420301957649 1.0000   
         H         H         1.0       0.9409210411378037  0.4275070742404647  0.16106189867706194          1.0000   
         C         C         1.0       0.6171697298645362  0.7889360648182479  0.13605094972722234          1.0000   
         C         C         1.0       0.6164973361129349  0.7627507585856332  0.10484182396867221          1.0000   
         H         H         1.0       0.6127261169017654  0.7615185315671976  0.15207825188238974          1.0000   
         H         H         1.0       0.5944304578822673  0.8159469643804861  0.13624030041973745          1.0000   
         H         H         1.0       0.6408088416588514  0.7408201836349483  0.1041803530878902 1.0000   
         H         H         1.0       0.6209553314579407  0.7887940504226857  0.08760197850398146          1.0000   
         C         C         1.0       0.5485702953523779  0.544574168265398   0.8511343294434522 1.0000   
         C         C         1.0       0.509400255882389   0.5291039134624232  0.8468319678249162 1.0000   
         H         H         1.0       0.5514931549609567  0.58372431790961    0.8463501839087029 1.0000   
         H         H         1.0       0.9704190781512693  0.5765842438959431  0.8811738592870976 1.0000   
         H         H         1.0       0.4967357156454607  0.5298895766290739  0.8677390584923599 1.0000   
         H         H         1.0       0.49486586010757566           0.5571343626644197 0.8338974876575651 1.0000   
         C         C         1.0       0.923756118644364   0.5929613306574213  0.9757036289521918 1.0000   
         C         C         1.0       0.9230984679511975  0.6353747065685277  0.9990284609110942 1.0000   
         H         H         1.0       0.9461798910533037  0.5969678401039327  0.9632418595189098 1.0000   
         H         H         1.0       0.9062251554448918  0.6047524042387125  0.9588716491921128 1.0000   
         H         H         1.0       0.8961640496663358  0.6397945925276776  0.008449769830313869         1.0000   
         H         H         1.0       0.9257741111832469  0.6698828787120243  0.9871318933832947 1.0000   
         C         C         1.0       0.6423458117499712  0.3147646708235636  0.9914920759414276 1.0000   
         C         C         1.0       0.6552597532783497  0.29151998724203615           0.9623629629929402 1.0000   
         H         H         1.0       0.6643115911520167  0.3114029042020681  0.007896526511033786         1.0000   
         H         H         1.0       0.618051156260463   0.29214577258663293           0.9964893903709638 1.0000   
         H         H         1.0       0.6526933260388692  0.25059860913884896           0.9631034730866278 1.0000   
         H         H         1.0       0.6372553384400822  0.2976262616308024  0.9444365639406721 1.0000   
         C         C         1.0       0.6549188451013231  0.3359958642184457  0.638388047984385  1.0000   
         C         C         1.0       0.614949479966276   0.3384534862110077  0.6327922028917623 1.0000   
         H         H         1.0       0.6688848538891919  0.31529480479679955           0.6199836756742121 1.0000   
         H         H         1.0       0.6572306961030888  0.30935476571499043           0.6580721528697425 1.0000   
         H         H         1.0       0.6023208486619218  0.35187049739052634           0.6545244365583549 1.0000   
         H         H         1.0       0.605411023806528   0.3000942343346415  0.6304713944572443 1.0000   
         C         C         1.0       0.5995935189375369  0.71020829432587    0.677922065776712  1.0000   
         C         C         1.0       0.6158192196099412  0.6941487178162811  0.6468848637087355 1.0000   
         H         H         1.0       0.6156781284935211  0.7002957439728533  0.6984066326245635 1.0000   
         H         H         1.0       0.5743582053485491  0.6865029676812205  0.680364055015008  1.0000   
         H         H         1.0       0.6249247668370905  0.7273133468675038  0.6354511543244848 1.0000   
         H         H         1.0       0.5948985407925881  0.6819811302571777  0.6320016539860183 1.0000   
         C         C         1.0       0.6700105044932272  0.672804273813774   0.8900463969763761 1.0000   
         C         C         1.0       0.6942401645962138  0.6489897383453624  0.9113232400913206 1.0000   
         H         H         1.0       0.6802908210482727  0.7095519453399353  0.8846577673791257 1.0000   
         H         H         1.0       0.6460967041521966  0.6800507733886202  0.9027654702953535 1.0000   
         H         H         1.0       0.7112088105331765  0.6747672382756914  0.9229838897636721 1.0000   
         H         H         1.0       0.7155491724247395  0.6275447312096919  0.8983889423906534 1.0000   
         C         C         1.0       0.814969006633117   0.5779864356031724  0.8908631382700583 1.0000   
         C         C         1.0       0.8099398596935213  0.5691687279375599  0.9234245338620518 1.0000   
         H         H         1.0       0.840686107917299   0.5669080387865625  0.8819970213620906 1.0000   
         H         H         1.0       0.8148525323383746  0.6190153036708477  0.8884996088040199 1.0000   
         H         H         1.0       0.8283731560797025  0.5882212153272269  0.939202386439232  1.0000   
         H         H         1.0       0.783101123687882   0.5831684489740909  0.9302165183688825 1.0000   
         C         C         1.0       0.6492220146214932  0.3285099862563994  0.7830727123738791 1.0000   
         C         C         1.0       0.629951291633583   0.3253425597795318  0.7534422889262646 1.0000   
         H         H         1.0       0.6738902131822752  0.3077969882926155  0.7797965986380125 1.0000   
         H         H         1.0       0.6350409721879148  0.30816769135599414           0.8008333081036508 1.0000   
         H         H         1.0       0.6366890200463988  0.2905806780486857  0.7432066421317552 1.0000   
         H         H         1.0       0.639426389240644   0.3535033278616632  0.73725943016994   1.0000   
         C         C         1.0       0.8754245397660833  0.5021733230103791  0.6116195130196701 1.0000   
         C         C         1.0       0.8395218816961575  0.49983994947392385           0.5950663226189973 1.0000   
         H         H         1.0       0.8816116083103064  0.5391268093299912  0.6208815040430953 1.0000   
         H         H         1.0       0.8944032321132982  0.4963860466329554  0.5931711666618187 1.0000   
         H         H         1.0       0.8357998711042596  0.46449003063245414           0.5857674744002116 1.0000   
         H         H         1.0       0.8407622989332572  0.5230360507813633  0.5751576420044582 1.0000

