data_0
_chemical_formula_structural 
                                        C6H4C38H24C6H4C38H24C6H4C38H24C6H4C38H24C6H4C38H24C6H4C38H24C6H4C38H24C6H4C38H24C6H4C38H24C6H4C38H24C6H4C38H24C6H4C38H24C6H4C38H24C6H4C38H24C6H4C38H24C6H4C38H24C2H4C2H4C2H4C2H4C2H4C2H4C2H4C2H4C2H4C2H4C2H4C2H4C2H4C2H4C2H4C2H4C2H4C2H4C2H4C2H4C2H4C2H4C2H4C2H4C2H4C2H4C2H4C2H4C2H4C2H4C2H4C2H4C2H4C2H4C2H4C2H4C2H4C2H4C2H4C2H4C2H4C2H4C2H4C2H4C2H4C2H4C2H4C2H4C6H4C38H24C6H4C38H24C6H4C38H24C6H4C38H24C6H4C38H24C6H4C38H24C6H4C38H24C6H4C38H24C6H4C38H24C6H4C38H24C6H4C38H24C6H4C38H24C6H4C38H24C6H4C38H24C6H4C38H24C6H4C38H24C2H4C2H4C2H4C2H4C2H4C2H4C2H4C2H4C2H4C2H4C2H4C2H4C2H4C2H4C2H4C2H4C2H4C2H4C2H4C2H4C2H4C2H4C2H4C2H4C2H4C2H4C2H4C2H4C2H4C2H4C2H4C2H4C2H4C2H4C2H4C2H4C2H4C2H4C2H4C2H4C2H4C2H4C2H4C2H4C2H4C2H4C2H4C2H4
_chemical_formula_sum                   'C1600 H1280'
_cell_length_a                          41.31868837870422
_cell_length_b                          29.698061602333162
_cell_length_c                          48.811355119488034
_cell_angle_alpha                       91.69289999383393
_cell_angle_beta                        89.91724381406468
_cell_angle_gamma                       89.80757665907693
_space_group_name_H-M_alt               'P 1'
_space_group_IT_number                  1
loop_
  _space_group_symop_operation_xyz
         'x, y, z' 
loop_
  _atom_site_type_symbol
  _atom_site_label
  _atom_site_symmetry_multiplicity
  _atom_site_fract_x
  _atom_site_fract_y
  _atom_site_fract_z
  _atom_site_occupancy
         C         C         1.0       0.09208869781039966           0.20367050658845592          0.750541723943552  1.0000   
         C         C         1.0       0.11664418307824778           0.20854449907549588          0.7699528615060018 1.0000   
         C         C         1.0       0.1302870222886959  0.25038058214947573           0.7733840260315342 1.0000   
         C         C         1.0       0.12113552937575015           0.2876200570102328 0.7583226591542168 1.0000   
         C         C         1.0       0.09693467550350528           0.2798135297639164 0.7390504309667013 1.0000   
         C         C         1.0       0.08446419676483981           0.2379305428001167 0.7348771244149725 1.0000   
         H         H         1.0       0.12494643399740776           0.1851147559173834 0.7844425850679496 1.0000   
         H         H         1.0       0.14721189018676886           0.2576755934857206 0.7895412268091259 1.0000   
         H         H         1.0       0.08741222686695761           0.3042014311032514 0.7240485210836071 1.0000   
         H         H         1.0       0.07158454635349243           0.2310139164308547 0.7149540980357769 1.0000   
         C         C         1.0       0.19716735915583605           0.3194569134873615 0.775770004027539  1.0000   
         C         C         1.0       0.17090242091301192           0.3476998445403238 0.7732663508248439 1.0000   
         C         C         1.0       0.17615658222102626           0.39143296026444196          0.7831847420847545 1.0000   
         C         C         1.0       0.2044607441597604  0.4051696313699241  0.7954717655766441 1.0000   
         C         C         1.0       0.22919488450783326           0.37438032586701403          0.7976426912547664 1.0000   
         C         C         1.0       0.22543600309216905           0.3302386425787029 0.7888751191420704 1.0000   
         C         C         1.0       0.13530343709858417           0.33731791497701846          0.7634315564265941 1.0000   
         C         C         1.0       0.11036311949694373           0.3535363677615397 0.785548812528578  1.0000   
         C         C         1.0       0.08506726435057646           0.3818916796042301 0.7810980212645585 1.0000   
         C         C         1.0       0.06676168746098546           0.4005627145352305 0.801447239073861  1.0000   
         C         C         1.0       0.07559046069242713           0.3939534379804212 0.8284645227710679 1.0000   
         C         C         1.0       0.0989695544268046  0.3639246120832726  0.8331434026618059 1.0000   
         C         C         1.0       0.11601488733777371           0.3415289268253858 0.812431581872871  1.0000   
         C         C         1.0       0.16035281241758595           0.3351679846435428 0.7141935782647291 1.0000   
         C         C         1.0       0.1738482862648771  0.35669222431604375           0.692754339838678  1.0000   
         C         C         1.0       0.16667180675843604           0.40106070496683555          0.6872707206333081 1.0000   
         C         C         1.0       0.14582758252129532           0.4233027203304138 0.7055561763938594 1.0000   
         C         C         1.0       0.13400393049538956           0.40415414233233043          0.728178662656181  1.0000   
         C         C         1.0       0.14088774340887958           0.3589796535500467 0.7336684161361161 1.0000   
         C         C         1.0       0.1851497590269755  0.4268675781376318  0.6645405986675784 1.0000   
         C         C         1.0       0.2720730836389165  0.4725881619873879  0.7066401772868707 1.0000   
         C         C         1.0       0.27251046040101595           0.43311893017541647          0.6902854941014769 1.0000   
         C         C         1.0       0.24469743898702007           0.4187781736029781 0.6780767928184815 1.0000   
         C         C         1.0       0.2157651261541513  0.44192672963403395           0.6815172993395197 1.0000   
         C         C         1.0       0.21547114327022152           0.47820668474095135          0.7013835846456095 1.0000   
         C         C         1.0       0.24309112369592578           0.49193990669250887          0.7132447341988185 1.0000   
         C         C         1.0       0.16605162133806425           0.47051634948846316          0.6516446550667025 1.0000   
         C         C         1.0       0.13299385681675097           0.46969973071688426          0.6449362883267595 1.0000   
         C         C         1.0       0.1160594726028267  0.5065527177698762  0.6375322667863318 1.0000   
         C         C         1.0       0.13199241435501605           0.5465147706065466 0.6338468768000485 1.0000   
         C         C         1.0       0.16440019991897936           0.5488711535384339 0.6383896006978422 1.0000   
         C         C         1.0       0.18148286095298788           0.5114983866675097 0.6459704655677243 1.0000   
         C         C         1.0       0.21612443634718753           0.4076791172105363 0.6218310340469163 1.0000   
         C         C         1.0       0.22401488130549077           0.3749959430654141 0.6018418815586397 1.0000   
         C         C         1.0       0.20531996257771715           0.3369417774943653 0.596056178267819  1.0000   
         C         C         1.0       0.17601199405866022           0.3351176265556137 0.6097309262161515 1.0000   
         C         C         1.0       0.1680973367897271  0.3661932900716621  0.6295967075425044 1.0000   
         C         C         1.0       0.1899693202953544  0.3992963147248366  0.6390442461419464 1.0000   
         H         H         1.0       0.19432811975994765           0.2866947588152541 0.7653597127750774 1.0000   
         H         H         1.0       0.15661784753094551           0.4149782030963555 0.7850421050216694 1.0000   
         H         H         1.0       0.20619211163378082           0.4385226819620339 0.8031780272293835 1.0000   
         H         H         1.0       0.2446978184805265  0.30765086365599453           0.787261829742515  1.0000   
         H         H         1.0       0.07855473949135312           0.38875815984410245          0.7589102019240276 1.0000   
         H         H         1.0       0.04745406663048359           0.4249550404208614 0.7980130625584999 1.0000   
         H         H         1.0       0.10460202202697916           0.35241203671023386          0.8530016377842149 1.0000   
         H         H         1.0       0.13761359489628852           0.32210550022627266          0.8181004970606438 1.0000   
         H         H         1.0       0.1687285816234641  0.3051424498569549  0.7182831861564406 1.0000   
         H         H         1.0       0.19474440733928958           0.33979311014189173          0.6818734160782434 1.0000   
         H         H         1.0       0.14338274657857653           0.4599986706283341 0.7044422860577432 1.0000   
         H         H         1.0       0.12275163214501808           0.4248139386548098 0.743894913983679  1.0000   
         H         H         1.0       0.2934769897814642  0.41509162296678725           0.6851076983211238 1.0000   
         H         H         1.0       0.2450785187916884  0.388028217256584   0.665839917960264  1.0000   
         H         H         1.0       0.1935250215042904  0.49557450259909624           0.7054923038453417 1.0000   
         H         H         1.0       0.24524062627350096           0.5226962572494507 0.7265159777890129 1.0000   
         H         H         1.0       0.11968295665201688           0.4422895490581873 0.6529688729727041 1.0000   
         H         H         1.0       0.09031574197280424           0.5059058719372564 0.6388323496975287 1.0000   
         H         H         1.0       0.17820082547319477           0.5805930156121274 0.6352614020874191 1.0000   
         H         H         1.0       0.20720074660072038           0.5169341193414808 0.6481796094709897 1.0000   
         H         H         1.0       0.231660363490196   0.43767446039131586           0.6244344838111368 1.0000   
         H         H         1.0       0.24635773547429687           0.37915229356052027          0.5907965694397219 1.0000   
         H         H         1.0       0.15780326270819636           0.30959154820096674          0.6048496020029553 1.0000   
         H         H         1.0       0.14393377397525675           0.36238017479702617          0.6381597861816868 1.0000   
         C         C         1.0       0.18461590499587463           0.2739528909659453 0.0033000510173437636        1.0000   
         C         C         1.0       0.1883824163945003  0.31292330093807985           0.9887627449454944 1.0000   
         C         C         1.0       0.16191920562535286           0.33667683975594637          0.9810292243420142 1.0000   
         C         C         1.0       0.13111796419248256           0.321515767458539  0.9847186469739047 1.0000   
         C         C         1.0       0.12640935617716698           0.28190301406489904          0.9990900135498062 1.0000   
         C         C         1.0       0.153639524503831   0.2603048214951525  0.008620680096947275         1.0000   
         H         H         1.0       0.20995740504672264           0.32464471237014714          0.9828922370114654 1.0000   
         H         H         1.0       0.16645164899980075           0.3676077727062412 0.9695494532182284 1.0000   
         H         H         1.0       0.10269005509712158           0.271568433410712  0.005660894775875391         1.0000   
         H         H         1.0       0.15056032568803296           0.23076394844493603          0.019811622092395488         1.0000   
         C         C         1.0       0.0826132119641726  0.27707238158837816           0.9476738561655302 1.0000   
         C         C         1.0       0.07445547739987353           0.31447914323902393          0.9644017359466631 1.0000   
         C         C         1.0       0.04189576110889836           0.323809522498857  0.9676114374284932 1.0000   
         C         C         1.0       0.01919875012021491           0.3007452887939686 0.9523120649690703 1.0000   
         C         C         1.0       0.02808507901604521           0.2651611440190251 0.9357560568311971 1.0000   
         C         C         1.0       0.0595783987890307  0.25441731834625997           0.9341663835019912 1.0000   
         C         C         1.0       0.10064937512711687           0.34912019822971174          0.9750496329371069 1.0000   
         C         C         1.0       0.10176079864792249           0.3825261542223194 0.9501567018909278 1.0000   
         C         C         1.0       0.07698796209093915           0.41405840463120747          0.9456334837194422 1.0000   
         C         C         1.0       0.07314342151759466           0.4362152139132655 0.92168026440554   1.0000   
         C         C         1.0       0.09403667274178597           0.42637201573562106          0.9003537059567597 1.0000   
         C         C         1.0       0.12014705244624979           0.39821820450112433          0.9045272184492017 1.0000   
         C         C         1.0       0.12237067230114552           0.37423664886939184          0.9279903623058041 1.0000   
         C         C         1.0       0.07136195286133164           0.365755585143812  0.02266999708218871          1.0000   
         C         C         1.0       0.05763378959097534           0.3959012816824865 0.04059699372561627          1.0000   
         C         C         1.0       0.0648372093958451  0.4424609528304936  0.03890216506143726          1.0000   
         C         C         1.0       0.09089952257906683           0.4540706447661607 0.02215953270611904          1.0000   
         C         C         1.0       0.10490844456255    0.42349098993008244           0.004131793093177016         1.0000   
         C         C         1.0       0.09236745099811951           0.37980953756554037          0.002206690809563039         1.0000   
         C         C         1.0       0.03899192876200426           0.4811796314407009 0.04493511307244521          1.0000   
         C         C         1.0       0.44274574586989895           0.49772937382996074          0.9625754509819958 1.0000   
         C         C         1.0       0.42582121769545356           0.48552242056800277          0.9853577292823038 1.0000   
         C         C         1.0       0.44017493009299824           0.48287284745249287          0.010279288587076829         1.0000   
         C         C         1.0       0.4708121426863902  0.4977674654639241  0.015464675482672035         1.0000   
         C         C         1.0       0.02830894110024005           0.4978567707002861 0.9924783935419297 1.0000   
         C         C         1.0       0.47417328276781523           0.509744083059959  0.9658267133290948 1.0000   
         C         C         1.0       0.05307937254956575           0.5279779598235307 0.05327570021460486          1.0000   
         C         C         1.0       0.07916797630650006           0.5316198595087036 0.07033506353293248          1.0000   
         C         C         1.0       0.0923151093705859  0.572057320498033   0.07731498993536158          1.0000   
         C         C         1.0       0.08130277310055334           0.6102837689651172 0.06567036935603393          1.0000   
         C         C         1.0       0.053423247319578177          0.6086616379255259 0.05031846876978453          1.0000   
         C         C         1.0       0.03941573254269557           0.5675196039311232 0.045521386836283526         1.0000   
         C         C         1.0       0.43645076161720775           0.5137075142411806 0.07270175019454193          1.0000   
         C         C         1.0       0.4159245145282813  0.5008016426193085  0.0932548832692086 1.0000   
         C         C         1.0       0.42358637009794875           0.46512261991588333          0.11073509268999474          1.0000   
         C         C         1.0       0.4523781315377342  0.44381436480585107           0.10753523274990952          1.0000   
         C         C         1.0       0.47399444748103975           0.45880621450073633          0.08721497831751111          1.0000   
         C         C         1.0       0.4652973749465362  0.49020481916963166           0.06728488284311542          1.0000   
         H         H         1.0       0.10702864516085847           0.26533423175486354          0.9435200574020902 1.0000   
         H         H         1.0       0.03600194720003514           0.3560963356896872 0.9790814923746212 1.0000   
         H         H         1.0       0.4946709664786034  0.32113688908720045           0.9285595936268004 1.0000   
         H         H         1.0       0.06590503236529019           0.22562561021609193          0.9204167606676797 1.0000   
         H         H         1.0       0.05570676338647112           0.41754232564629346          0.9577885034638244 1.0000   
         H         H         1.0       0.050575256984488275          0.45361484291266707          0.9195815164007266 1.0000   
         H         H         1.0       0.13738220232226167           0.39331645997985315          0.8877381456527408 1.0000   
         H         H         1.0       0.13822374812250798           0.34489214482994296          0.9260056270934323 1.0000   
         H         H         1.0       0.059031540990290475          0.3329710180172945 0.021337222668288545         1.0000   
         H         H         1.0       0.03768425346868826           0.38691994693554405          0.05344380764251898          1.0000   
         H         H         1.0       0.09658099980172982           0.4908752822118983 0.017788613766671617         1.0000   
         H         H         1.0       0.1211226372936523  0.4355676340339482  0.9894314179887407 1.0000   
         H         H         1.0       0.4028073471118182  0.4709892791645645  0.9808170932145549 1.0000   
         H         H         1.0       0.42744746346994145           0.46641741896797584          0.025766583614307635         1.0000   
         H         H         1.0       0.047529506353782745          0.5233564795650802 0.9942455092675617 1.0000   
         H         H         1.0       0.48899656615377823           0.519834882518513  0.9494323335776454 1.0000   
         H         H         1.0       0.09147147330037399           0.5030444646459807 0.07810210790204894          1.0000   
         H         H         1.0       0.11412973551322261           0.5714834038879076 0.09070036252043205          1.0000   
         H         H         1.0       0.5046340855688405  0.652870423428514   0.024947936074570378         1.0000   
         H         H         1.0       0.47638858705856746           0.5899575457981514 0.020592167327336645         1.0000   
         H         H         1.0       0.42960757506908986           0.5406137091314743 0.058716083790957725         1.0000   
         H         H         1.0       0.39555638218681066           0.5235269961605692 0.09691436146350926          1.0000   
         H         H         1.0       0.4622615814616123  0.4180394105149292  0.12136846311340861          1.0000   
         H         H         1.0       0.047769611870809206          0.4346532831034914 0.09328807857907935          1.0000   
         C         C         1.0       0.4208600930106561  0.40758095305563713           0.9220185109685002 1.0000   
         C         C         1.0       0.4374153692595332  0.3718086623965785  0.9128180596022394 1.0000   
         C         C         1.0       0.43143488832564114           0.32825204358796256          0.9220397066809978 1.0000   
         C         C         1.0       0.4096644000231828  0.3217413948152255  0.9431174477688276 1.0000   
         C         C         1.0       0.3907661438570227  0.3598121476328589  0.9494698487706171 1.0000   
         C         C         1.0       0.39551972466598967           0.401478434706351  0.9395518521754488 1.0000   
         H         H         1.0       0.45857460894289354           0.3790111829656006 0.900278264383135  1.0000   
         H         H         1.0       0.4412364603945096  0.29843808872325717           0.91086782059772   1.0000   
         H         H         1.0       0.3740395653348061  0.3600987865767417  0.9661860101861088 1.0000   
         H         H         1.0       0.3793718321467318  0.4287745278157325  0.9460187624394246 1.0000   
         C         C         1.0       0.41730674781784094           0.32499195703509537          0.004011322738382672         1.0000   
         C         C         1.0       0.39973377375594105           0.2906146286572941 0.993125855108102  1.0000   
         C         C         1.0       0.3821140149788948  0.2625586108520651  0.010436115479827953         1.0000   
         C         C         1.0       0.38421514098862364           0.2674851367635692 0.038220119011359584         1.0000   
         C         C         1.0       0.4036080732262783  0.30181671655137976           0.050036643449449025         1.0000   
         C         C         1.0       0.4202419284444475  0.32964067872915676           0.03249960196495365          1.0000   
         C         C         1.0       0.40497154770738886           0.27841099840033634          0.9611518177409498 1.0000   
         C         C         1.0       0.43163472892577964           0.24055097285414967          0.9632697051032769 1.0000   
         C         C         1.0       0.42579151150384054           0.19396220813782256          0.963363581066163  1.0000   
         C         C         1.0       0.4493715400095604  0.16353381447385726           0.9703402383818158 1.0000   
         C         C         1.0       0.47962086886135397           0.17939892085128897          0.978154489269264  1.0000   
         C         C         1.0       0.4869252060234532  0.22344198730003098           0.9749977385020625 1.0000   
         C         C         1.0       0.4635176197370586  0.2528540696639632  0.968166781953617  1.0000   
         C         C         1.0       0.3440296627244769  0.2655680686099502  0.9537397660896993 1.0000   
         C         C         1.0       0.31766598809093866           0.2510477475608343 0.938955181235216  1.0000   
         C         C         1.0       0.3224012079556028  0.22940819529266868           0.91348439040325   1.0000   
         C         C         1.0       0.3545997102590538  0.2216426228183853  0.904867364782141  1.0000   
         C         C         1.0       0.38025795588217753           0.23423210478729906          0.9210157294651709 1.0000   
         C         C         1.0       0.3758807135688824  0.2586367880270691  0.9455313159246026 1.0000   
         C         C         1.0       0.2896009807194134  0.22338931591158365           0.8945620427526837 1.0000   
         C         C         1.0       0.2283704947883909  0.19483303451099016           0.9658033368039824 1.0000   
         C         C         1.0       0.21818597089978897           0.22419166909840418          0.9468774133619179 1.0000   
         C         C         1.0       0.23450493465940367           0.2294145856438504 0.9223731540615473 1.0000   
         C         C         1.0       0.26243559335580113           0.20588918176049745          0.9162301266207691 1.0000   
         C         C         1.0       0.2693372270133436  0.17132476283952094           0.9330818572180144 1.0000   
         C         C         1.0       0.2529984860786667  0.16604018436194476           0.9569186783357313 1.0000   
         C         C         1.0       0.29752512928115965           0.1901657461739387 0.868784606775924  1.0000   
         C         C         1.0       0.31492343542221285           0.20708595840130942          0.8460774132023173 1.0000   
         C         C         1.0       0.32322453239157245           0.17872509824390478          0.8245209668312337 1.0000   
         C         C         1.0       0.31152696676510283           0.13427926919740615          0.8232665043282003 1.0000   
         C         C         1.0       0.2959328148657122  0.1189321299683916  0.8464353532963342 1.0000   
         C         C         1.0       0.28966991853121055           0.14664274983975015          0.8682256598254494 1.0000   
         C         C         1.0       0.25010078928200435           0.2747771342881744 0.865097366803324  1.0000   
         C         C         1.0       0.24172531557621704           0.3146940247690904 0.8542237234916036 1.0000   
         C         C         1.0       0.2608391061855281  0.353522253366049   0.8584153033053308 1.0000   
         C         C         1.0       0.28860861969851165           0.3502791447815112 0.8749296466070439 1.0000   
         C         C         1.0       0.29753066405787376           0.3089755556414136 0.8845864296354422 1.0000   
         C         C         1.0       0.2769052598330215  0.27057649134533873           0.8823676825069666 1.0000   
         H         H         1.0       0.43026488834412285           0.34725030215447783          0.9910087492557088 1.0000   
         H         H         1.0       0.3693639461140895  0.2359297262952507  0.0011964577991072645        1.0000   
         H         H         1.0       0.3730978832467784  0.24700376326391354           0.05388965636562175          1.0000   
         H         H         1.0       0.4391712526034693  0.35006949194787607           0.041677785022565396         1.0000   
         H         H         1.0       0.40196565148720886           0.18008190992743492          0.9596818003385826 1.0000   
         H         H         1.0       0.44341727349018645           0.12834428760836994          0.974950134097588  1.0000   
         H         H         1.0       0.5114496854056355  0.23809009253120988           0.9783456011451614 1.0000   
         H         H         1.0       0.46843310070389876           0.287691148168768  0.9719456296360716 1.0000   
         H         H         1.0       0.3406668523550787  0.2842246188317614  0.9723920196792003 1.0000   
         H         H         1.0       0.2930540395754874  0.2644263254303488  0.9454341697186787 1.0000   
         H         H         1.0       0.36293529735333757           0.20553724201710846          0.8857130389626194 1.0000   
         H         H         1.0       0.4032175308972818  0.22478275692643587           0.9122756176439005 1.0000   
         H         H         1.0       0.19880220127575962           0.24932482008895465          0.9500873175760957 1.0000   
         H         H         1.0       0.2252024936138771  0.2561557832174599  0.9117389706364494 1.0000   
         H         H         1.0       0.28922249669620453           0.15134951827      0.9291618651000237 1.0000   
         H         H         1.0       0.26235056196870526           0.14256458116719775          0.9717804518397083 1.0000   
         H         H         1.0       0.323422761366165   0.2402703498640409  0.845033464933864  1.0000   
         H         H         1.0       0.33516789869957225           0.1920156072388041 0.8075017953039322 1.0000   
         H         H         1.0       0.2902700934758049  0.08417911609804565           0.8497663137435635 1.0000   
         H         H         1.0       0.28074126956810425           0.13129318645872326          0.8872011537964214 1.0000   
         H         H         1.0       0.23567744971809682           0.24766423314397462          0.8589979242435578 1.0000   
         H         H         1.0       0.22106566924825913           0.3155536783527284 0.8417376334506596 1.0000   
         H         H         1.0       0.30622879453036495           0.37679919385557203          0.8765182009699523 1.0000   
         H         H         1.0       0.3205272569864722  0.3048440804391876  0.8925681785804607 1.0000   
         C         C         1.0       0.3294920694561526  0.4334049140430019  0.7367364678825444 1.0000   
         C         C         1.0       0.31957191958143083           0.4056878630688375 0.7567915019324439 1.0000   
         C         C         1.0       0.32647456714120676           0.3613145204504322 0.7560725657884662 1.0000   
         C         C         1.0       0.34290390706970875           0.34124847112601553          0.73435550464304   1.0000   
         C         C         1.0       0.35735714687949094           0.37207809923852303          0.7156495379111251 1.0000   
         C         C         1.0       0.34993383416266716           0.4173994290893353 0.7171960823760984 1.0000   
         H         H         1.0       0.3046325582951703  0.41996054045272374           0.773622020676535  1.0000   
         H         H         1.0       0.31528735445540507           0.34187281401283026          0.7716434491565877 1.0000   
         H         H         1.0       0.3718767898722891  0.36267619806727386           0.6980133992220572 1.0000   
         H         H         1.0       0.3542492710701634  0.43778101038323236           0.7002916347042656 1.0000   
         C         C         1.0       0.3154977933022894  0.3025508952178475  0.6821897828543448 1.0000   
         C         C         1.0       0.3346829466717539  0.27329348633655765           0.6969360447508127 1.0000   
         C         C         1.0       0.335218029349987   0.2292945478398667  0.6878607389407633 1.0000   
         C         C         1.0       0.31656474005180846           0.21516164890792674          0.6664526486293052 1.0000   
         C         C         1.0       0.2977343787268403  0.24353760026001983           0.6520565501717782 1.0000   
         C         C         1.0       0.299645043227806   0.2886575761041319  0.658820899074692  1.0000   
         C         C         1.0       0.34178494990659564           0.2875363584982187 0.7282886930072947 1.0000   
         C         C         1.0       0.3115268178732554  0.26099450125541884           0.7412998568054716 1.0000   
         C         C         1.0       0.31481919935587444           0.21822346375841306          0.7506383143407671 1.0000   
         C         C         1.0       0.2884864488156097  0.18943409627764346           0.7482607270570266 1.0000   
         C         C         1.0       0.25938128294802804           0.20362251893633856          0.7407205302908496 1.0000   
         C         C         1.0       0.254049769252662   0.2476499019646082  0.7370250441372148 1.0000   
         C         C         1.0       0.28006269139500684           0.27783301932150345          0.7372347376474383 1.0000   
         C         C         1.0       0.4001519711207428  0.2524340018056006  0.7239683603602022 1.0000   
         C         C         1.0       0.42725902392391946           0.23477596293443712          0.7348860199670484 1.0000   
         C         C         1.0       0.4303755837925702  0.23223969329306302           0.7630418586306649 1.0000   
         C         C         1.0       0.40683584878468715           0.25399542265169234          0.7789747086181787 1.0000   
         C         C         1.0       0.38008090713509657           0.27379159472372466          0.7676986145794797 1.0000   
         C         C         1.0       0.37522665207851796           0.27218857948141617          0.7403238019927633 1.0000   
         C         C         1.0       0.4557224571908903  0.19961184611443927           0.7781202617311714 1.0000   
         C         C         1.0       0.01283549265737337           0.1726643567979057 0.7518277050026194 1.0000   
         C         C         1.0       0.005647581811294712          0.2168226137612018 0.7511652517228655 1.0000   
         C         C         1.0       0.5015554908721332  0.21813308698306486           0.7474251745600456 1.0000   
         C         C         1.0       0.48497779264564794           0.18469013345682742          0.7591856689178463 1.0000   
         C         C         1.0       0.49875496905874633           0.14296599507449106          0.7576419745321891 1.0000   
         C         C         1.0       0.5290921772157152  0.13414446249153697           0.7463298080866516 1.0000   
         C         C         1.0       0.4338845138859415  0.15968883788891675           0.7855343893493535 1.0000   
         C         C         1.0       0.42113532111359836           0.15696960552275052          0.8119814164356245 1.0000   
         C         C         1.0       0.39774435847715683           0.1272667862054669 0.8180174789203485 1.0000   
         C         C         1.0       0.3844625489359377  0.09956156050040428           0.7978116522079165 1.0000   
         C         C         1.0       0.39782616306069796           0.09939873793342743          0.771478134343949  1.0000   
         C         C         1.0       0.4226020746604488  0.12959424407529202           0.7657019273274044 1.0000   
         C         C         1.0       0.4924119792694177  0.18574274401990806           0.8222235377254834 1.0000   
         C         C         1.0       0.5116049167224672  0.20180374591263112           0.8446803291580388 1.0000   
         C         C         1.0       0.5144395850425242  0.247784866579842   0.849331005849381  1.0000   
         C         C         1.0       0.4975371952563222  0.2767314722062008  0.8330072716845814 1.0000   
         C         C         1.0       0.4798511411498564  0.2605794619423359  0.8114922303742766 1.0000   
         C         C         1.0       0.4770247895975505  0.21383048719698547           0.8048424311012623 1.0000   
         H         H         1.0       0.3077813748805265  0.33742456168611074           0.6879261963836216 1.0000   
         H         H         1.0       0.34638430520755575           0.20712369785137805          0.7018269952048274 1.0000   
         H         H         1.0       0.3166712579193029  0.17922904944763063           0.6618524048740021 1.0000   
         H         H         1.0       0.2812971946968764  0.31179358266329965           0.6504995031173532 1.0000   
         H         H         1.0       0.3382052361340371  0.20610485247805496           0.7550782684908293 1.0000   
         H         H         1.0       0.2930918458058878  0.15677031712960013           0.7556167808481373 1.0000   
         H         H         1.0       0.2306991611297345  0.2636693256706449  0.7327733675321956 1.0000   
         H         H         1.0       0.2751127322617316  0.3107180303482605  0.7316638946245679 1.0000   
         H         H         1.0       0.3973974297348412  0.25193697681579025           0.7018250426165783 1.0000   
         H         H         1.0       0.44348958189402254           0.21843532670924345          0.7222849309990209 1.0000   
         H         H         1.0       0.41251835486927785           0.24819559106227543          0.8006545854426602 1.0000   
         H         H         1.0       0.36108219119249046           0.28384524749021117          0.7806681051426867 1.0000   
         H         H         1.0       0.020331217155183136          0.24299768718360965          0.7432748877731921 1.0000   
         H         H         1.0       0.4939253211430075  0.25246686767103044           0.7528495495699039 1.0000   
         H         H         1.0       0.48703642084169335           0.11636736000596935          0.7676643670467743 1.0000   
         H         H         1.0       0.5422791571829267  0.10064748277257776           0.7471762183774415 1.0000   
         H         H         1.0       0.429962619887877   0.179707885390654   0.8288082823212185 1.0000   
         H         H         1.0       0.3878610046107374  0.13034981360128767           0.8390342646597931 1.0000   
         H         H         1.0       0.3876818446653222  0.07539854041363786           0.7557498780967953 1.0000   
         H         H         1.0       0.43138671190454203           0.13195729836530962          0.7444012710810504 1.0000   
         H         H         1.0       0.49097762613317336           0.1494284920649518 0.8153211511708549 1.0000   
         H         H         1.0       0.5245955163176733  0.1784530583088466  0.8558828611712456 1.0000   
         H         H         1.0       0.4948239143338366  0.31431248248656124           0.840001425741015  1.0000   
         H         H         1.0       0.46549531306486225           0.2828449056288298 0.7996392204582731 1.0000   
         C         C         1.0       0.3846774751501607  0.921762117494797   0.7326635630944662 1.0000   
         C         C         1.0       0.3770457168056666  0.966440516216644   0.7355743081273156 1.0000   
         C         C         1.0       0.3446331114096095  0.9808527867571376  0.7351581090625684 1.0000   
         C         C         1.0       0.3196668349300021  0.9506339411163716  0.7316728125785389 1.0000   
         C         C         1.0       0.32784274613383346           0.9059830361908906 0.732052453211389  1.0000   
         C         C         1.0       0.3597650552556014  0.8912356099515746  0.7311934781552761 1.0000   
         H         H         1.0       0.3986688793562624  0.9858622558338619  0.7387811548315586 1.0000   
         H         H         1.0       0.33877644522167105           0.014817229548512504         0.7395974253702436 1.0000   
         H         H         1.0       0.30989665667077587           0.87984505768137   0.7337556746976142 1.0000   
         H         H         1.0       0.36336693278464044           0.8559202608952483 0.7303703515104149 1.0000   
         C         C         1.0       0.2820236422066182  0.9282131379205608  0.6806653654381636 1.0000   
         C         C         1.0       0.2657507718874458  0.9344685717848377  0.7053858400947213 1.0000   
         C         C         1.0       0.23449011192902858           0.9166959003229264 0.7073248346705032 1.0000   
         C         C         1.0       0.22049292680762647           0.8933112567220863 0.6864565140183718 1.0000   
         C         C         1.0       0.23828344286720715           0.8834480916220065 0.663483249005781  1.0000   
         C         C         1.0       0.2678665903195448  0.9014383592105626  0.659610142736177  1.0000   
         C         C         1.0       0.28270142598829434           0.9619517270839388 0.7298722542250278 1.0000   
         C         C         1.0       0.2684954049975981  0.011517226295524543         0.7228428825125922 1.0000   
         C         C         1.0       0.23750917484959114           0.02320633268503692          0.7318825959912725 1.0000   
         C         C         1.0       0.2276222235884234  0.06534783073352284           0.7278693991180488 1.0000   
         C         C         1.0       0.24532289481835565           0.095625440286836  0.7142222992539339 1.0000   
         C         C         1.0       0.275284087343197   0.08520450302841301           0.7043355080570138 1.0000   
         C         C         1.0       0.28674031894797175           0.04163179621323624          0.7078096549668673 1.0000   
         C         C         1.0       0.26087017409474206           0.9177694685570528 0.7732502097636621 1.0000   
         C         C         1.0       0.2530989027878813  0.9163751490642996  0.800959802862007  1.0000   
         C         C         1.0       0.2587033034522691  0.952767521362677   0.8180455667280403 1.0000   
         C         C         1.0       0.2709682275487757  0.9906307459645797  0.8061936289120645 1.0000   
         C         C         1.0       0.2817823991421286  0.9907631183970277  0.7796750905665473 1.0000   
         C         C         1.0       0.2752407555657756  0.9554169237659013  0.7616060665779375 1.0000   
         C         C         1.0       0.25145626957152195           0.9510148287478328 0.8496034062152704 1.0000   
         C         C         1.0       0.15076950358828553           0.995818688469285  0.8507685062787205 1.0000   
         C         C         1.0       0.15851112548172683           0.9507028155232097 0.8500641025186431 1.0000   
         C         C         1.0       0.18938765383719605           0.9358670054488651 0.8461210317988926 1.0000   
         C         C         1.0       0.21444607948536662           0.9648733475835625 0.8474215466229768 1.0000   
         C         C         1.0       0.20690347933611836           0.010749266396619996         0.846375200942346  1.0000   
         C         C         1.0       0.17529913553455664           0.026941173464446466         0.8476230425771786 1.0000   
         C         C         1.0       0.27296021660676517           0.9812604548483896 0.8698972740580541 1.0000   
         C         C         1.0       0.3063276526009477  0.9845685094552002  0.8672294767805471 1.0000   
         C         C         1.0       0.3244849930385924  0.009378575483922184         0.8841546803773724 1.0000   
         C         C         1.0       0.31088666641419177           0.0353717397095922 0.905613125324089  1.0000   
         C         C         1.0       0.27839356841625    0.027803788009158618         0.9109505787335975 1.0000   
         C         C         1.0       0.2595812723136229  0.0014243629112466985        0.8932627511896719 1.0000   
         C         C         1.0       0.2416837525523977  0.8748374936785394  0.8767474975265949 1.0000   
         C         C         1.0       0.2532012773249523  0.8401344287120863  0.8900971094239212 1.0000   
         C         C         1.0       0.28630091842771876           0.8290370367498112 0.8879865325501585 1.0000   
         C         C         1.0       0.30548233608444003           0.8490018571252194 0.8687098167081113 1.0000   
         C         C         1.0       0.2915715587415699  0.8833181923447119  0.8535465612858439 1.0000   
         C         C         1.0       0.2613341294898254  0.9008464012753306  0.860719929795254  1.0000   
         H         H         1.0       0.3040689416474603  0.9450572843445437  0.6748927692349154 1.0000   
         H         H         1.0       0.2185910246241627  0.9295948594632476  0.7234775579624221 1.0000   
         H         H         1.0       0.19929503488517758           0.8753508379977268 0.6923981915167696 1.0000   
         H         H         1.0       0.28209186767357813           0.8958040125479579 0.6404489672874757 1.0000   
         H         H         1.0       0.22417628764386077           0.003851054613035033         0.7460049001777727 1.0000   
         H         H         1.0       0.20376751603338014           0.07239195811667923          0.7340281810549992 1.0000   
         H         H         1.0       0.29093826678889784           0.1075965368636821 0.6924104178603605 1.0000   
         H         H         1.0       0.30966858756869275           0.03153774318215829          0.6991490438438869 1.0000   
         H         H         1.0       0.259020664732431   0.8865988492967648  0.7604005901189027 1.0000   
         H         H         1.0       0.24241581695923617           0.8869504113843906 0.8092342890906926 1.0000   
         H         H         1.0       0.2736181905677839  0.022034682816983512         0.818069468382248  1.0000   
         H         H         1.0       0.28974870314352047           0.021505254389181827         0.7722007686188165 1.0000   
         H         H         1.0       0.14115551004820015           0.922592905863142  0.8496004322144813 1.0000   
         H         H         1.0       0.19554363041505154           0.8988474141263385 0.8450468221318537 1.0000   
         H         H         1.0       0.22704704345885968           0.03279321715094008          0.8413523606371593 1.0000   
         H         H         1.0       0.169252535110352   0.06013406350364743           0.843655706684668  1.0000   
         H         H         1.0       0.31804828368138877           0.9650036023779401 0.8517792572789888 1.0000   
         H         H         1.0       0.35048986150367767           0.008926994522389766         0.8790103534717698 1.0000   
         H         H         1.0       0.2679588733454073  0.04213975257171735           0.9292641310661705 1.0000   
         H         H         1.0       0.23427645602526215           0.0010885379587217692        0.8982362588273486 1.0000   
         H         H         1.0       0.21801187362225688           0.8859127358273361 0.8802293298198715 1.0000   
         H         H         1.0       0.2391375338110644  0.8237332250147922  0.9057755769874055 1.0000   
         H         H         1.0       0.33208121806051466           0.845484593276583  0.8659732089840051 1.0000   
         H         H         1.0       0.30591060356500205           0.8951998636473452 0.8366584721616633 1.0000   
         C         C         1.0       0.35067608098742326           0.9042517877652809 0.03998616106424197          1.0000   
         C         C         1.0       0.3667367553833515  0.9367027450313119  0.0544931526892191 1.0000   
         C         C         1.0       0.3982177402044624  0.9504510842133269  0.047232718465124356         1.0000   
         C         C         1.0       0.411636358606656   0.9343838155044027  0.02287878080505364          1.0000   
         C         C         1.0       0.39307798961200124           0.9044322574442116 0.0068532558598151105        1.0000   
         C         C         1.0       0.36295410447253434           0.8879430375139856 0.01557300110541271          1.0000   
         H         H         1.0       0.3567700377190188  0.9526563232388533  0.0735963320593121 1.0000   
         H         H         1.0       0.4108765984335535  0.9724771330446641  0.06113517777129931          1.0000   
         H         H         1.0       0.4041861581353917  0.8882588739224042  0.9882647979754791 1.0000   
         H         H         1.0       0.35122027723492266           0.8646757633666428 0.0025139146387889166        1.0000   
         C         C         1.0       0.4779805932457821  0.9205428521536794  0.05831978889030998          1.0000   
         C         C         1.0       0.46603931227407797           0.9090982039305603 0.030935897487853598         1.0000   
         C         C         1.0       0.46237575698377054           0.8638117179848988 0.023661147083809925         1.0000   
         C         C         1.0       0.46378469593806393           0.8325050693222488 0.04271528793554223          1.0000   
         C         C         1.0       0.47016929384717365           0.8445080054090024 0.06872008096831882          1.0000   
         C         C         1.0       0.48306146808334616           0.8862556874799205 0.07502610837913053          1.0000   
         C         C         1.0       0.44824907538004266           0.9469501580270022 0.014672444049795421         1.0000   
         C         C         1.0       0.4593986962592512  0.9982626506791451  0.020633735575316087         1.0000   
         C         C         1.0       0.43606392214113743           0.031780917942636044         0.021830926216190764         1.0000   
         C         C         1.0       0.44625428826701996           0.0774191393703397 0.02253039963684598          1.0000   
         C         C         1.0       0.47831517480115576           0.08795267471760161          0.02159504402000726          1.0000   
         C         C         1.0       0.5007258734017045  0.054212919273408156         0.02264298338254613          1.0000   
         C         C         1.0       0.49206092809164836           0.009435987373711319         0.02272337657105326          1.0000   
         C         C         1.0       0.4839046045461058  0.9402531285094285  0.9718962867183575 1.0000   
         C         C         1.0       0.49078681992007095           0.9517568129639379 0.9453349344191954 1.0000   
         C         C         1.0       0.4664442606244134  0.9717461165451262  0.928362254085692  1.0000   
         C         C         1.0       0.43553014371628657           0.9663070323142975 0.9376841941048435 1.0000   
         C         C         1.0       0.4289968440698059  0.9587094586582682  0.9646531531263028 1.0000   
         C         C         1.0       0.45376200540876704           0.9457129369496968 0.9828804891597338 1.0000   
         C         C         1.0       0.47248892882450766           0.0032380574202859336        0.9037561674261514 1.0000   
         C         C         1.0       0.04775535510095991           0.027918472841407697         0.9473741791361467 1.0000   
         C         C         1.0       0.023866699330296993          0.025380650436597207         0.9661011067620394 1.0000   
         C         C         1.0       0.5174781616074052  0.04680243753150524           0.9308944962968603 1.0000   
         C         C         1.0       0.5052467531744007  0.031644801240653164         0.9059014010993274 1.0000   
         C         C         1.0       0.012543643771331233          0.9927969622971543 0.9146367670231887 1.0000   
         C         C         1.0       0.04239642299909947           0.012350937337865192         0.9214653880546427 1.0000   
         C         C         1.0       0.4478033468582166  0.04671152101338927           0.9034551265929682 1.0000   
         C         C         1.0       0.43614624794708046           0.06686864395518562          0.9275370547715167 1.0000   
         C         C         1.0       0.40602726103999986           0.08597893033617288          0.9291665944849036 1.0000   
         C         C         1.0       0.38762297981387356           0.08956023057029548          0.9049683732163387 1.0000   
         C         C         1.0       0.4007822488628679  0.07623706003844712           0.8814343646801872 1.0000   
         C         C         1.0       0.4309780247431578  0.057092614917209614         0.8799354975687413 1.0000   
         C         C         1.0       0.43972884060933265           0.9510077835151391 0.8708124459172278 1.0000   
         C         C         1.0       0.43739117865304195           0.9146852629916147 0.8526242157128171 1.0000   
         C         C         1.0       0.46404095146278745           0.8884963103059533 0.8462438570285884 1.0000   
         C         C         1.0       0.49372423345764477           0.9022375600271815 0.8562183649833356 1.0000   
         C         C         1.0       0.49625516485125554           0.9363267089940539 0.8752630064540721 1.0000   
         C         C         1.0       0.4699662952655922  0.9643703272882782  0.8808406439126304 1.0000   
         H         H         1.0       0.47972540222159016           0.954787475844828  0.06779279900341609          1.0000   
         H         H         1.0       0.45367561013995944           0.8536457372617299 0.003374356639946674         1.0000   
         H         H         1.0       0.45809448413439596           0.7987312818639427 0.03739664755129191          1.0000   
         H         H         1.0       0.4904797099484127  0.8946582507135261  0.09535172132613519          1.0000   
         H         H         1.0       0.4106073806947088  0.024689348529193023         0.01968376419212674          1.0000   
         H         H         1.0       0.4259153174645493  0.10091958205781822           0.021565634259093736         1.0000   
         H         H         1.0       0.5259509598599825  0.06166534408084742           0.022154392917339994         1.0000   
         H         H         1.0       0.5115511046430983  0.9843654452344821  0.02222353037473344          1.0000   
         H         H         1.0       0.5024439853393324  0.9275631745469146  0.9846347494714458 1.0000   
         H         H         1.0       0.5154635562792654  0.9487642527983909  0.9368258967506325 1.0000   
         H         H         1.0       0.4145033681387604  0.978694181501948   0.9266789950186576 1.0000   
         H         H         1.0       0.4047101007896757  0.9635571008656626  0.9710028706077766 1.0000   
         H         H         1.0       0.028348738821530023          0.04093374976831363          0.9858631486255086 1.0000   
         H         H         1.0       0.5057889487360867  0.03617288581010745           0.9507981090612191 1.0000   
         H         H         1.0       0.008918951421838775          0.9820692901073244 0.8936112373878107 1.0000   
         H         H         1.0       0.061360190440773045          0.015975361567588827         0.9047407291900147 1.0000   
         H         H         1.0       0.45047661840313685           0.06405709608220794          0.9450679685949432 1.0000   
         H         H         1.0       0.39605240164049504           0.09348271878723034          0.9490205661254174 1.0000   
         H         H         1.0       0.38522537042102867           0.07842599263657427          0.8629106524338725 1.0000   
         H         H         1.0       0.43645773488811707           0.04406988139198287          0.859581854839568  1.0000   
         H         H         1.0       0.4190899895719196  0.9706326268021293  0.8762234664320493 1.0000   
         H         H         1.0       0.41344651034602103           0.9037132551363558 0.8439766326268986 1.0000   
         H         H         1.0       0.5156189570256301  0.8819314798998238  0.8527271798149958 1.0000   
         H         H         1.0       0.5193793050899781  0.9441622778728743  0.8851223602301489 1.0000   
         C         C         1.0       0.1291424887701972  0.00442698830878263           0.9497954985555408 1.0000   
         C         C         1.0       0.11603390899763565           0.9615775765890762 0.949534633175731  1.0000   
         C         C         1.0       0.13533910105515118           0.9273630582255777 0.9579261171124456 1.0000   
         C         C         1.0       0.16751783383947533           0.9328923643681498 0.964004011681178  1.0000   
         C         C         1.0       0.1796562572263795  0.9753703753340128  0.9636432416718408 1.0000   
         C         C         1.0       0.16131300297115064           0.010730672327108563         0.9572099137289342 1.0000   
         H         H         1.0       0.09103790036326935           0.9539075435118778 0.9469154617133518 1.0000   
         H         H         1.0       0.12380878542840171           0.8959611199864996 0.9604409900751772 1.0000   
         H         H         1.0       0.20484243352525408           0.9790451326282515 0.9670504106900101 1.0000   
         H         H         1.0       0.1688157520705072  0.044826554038453786         0.9569304742021065 1.0000   
         C         C         1.0       0.24241477432056757           0.915096538003114  0.9457918757841877 1.0000   
         C         C         1.0       0.22728830082916812           0.8907688297361793 0.9663721247717731 1.0000   
         C         C         1.0       0.24581681997336116           0.8595768328373781 0.979795498602337  1.0000   
         C         C         1.0       0.27623498878798    0.8489116967665254  0.9713671856650447 1.0000   
         C         C         1.0       0.28954378388887936           0.869715661835089  0.9490546184862747 1.0000   
         C         C         1.0       0.27379946165021946           0.9056157435696341 0.9378974324134889 1.0000   
         C         C         1.0       0.1884299377703591  0.891217521149955   0.9704394519318283 1.0000   
         C         C         1.0       0.18064178741784861           0.8504334102191448 0.9487944610183141 1.0000   
         C         C         1.0       0.18009980193323855           0.8050391323503258 0.956003013006343  1.0000   
         C         C         1.0       0.17211862731048616           0.7722453993620282 0.9369144309640925 1.0000   
         C         C         1.0       0.16590512064482515           0.7820716520082087 0.9099464787850858 1.0000   
         C         C         1.0       0.16946695223887626           0.8256494529365616 0.9022411184385781 1.0000   
         C         C         1.0       0.1749584588382766  0.8586266389004609  0.9218100505003028 1.0000   
         C         C         1.0       0.19909208628907626           0.9080298932676939 0.02329984520390105          1.0000   
         C         C         1.0       0.19551008706093106           0.8960198478060236 0.0498683595352127 1.0000   
         C         C         1.0       0.17493811227102232           0.8624318690462633 0.057762442134187755         1.0000   
         C         C         1.0       0.15552284279831813           0.8442839206703121 0.03749438314786491          1.0000   
         C         C         1.0       0.15941027433039734           0.8543839505382379 0.01039663291920978          1.0000   
         C         C         1.0       0.18214952738377213           0.8842789959897681 0.002724319627482874         1.0000   
         C         C         1.0       0.17834788535590884           0.839976146014374  0.08641869666981787          1.0000   
         C         C         1.0       0.2819165936085042  0.8276968560764382  0.06745870120048988          1.0000   
         C         C         1.0       0.27241969356079415           0.8482341350185977 0.091833359797539  1.0000   
         C         C         1.0       0.24019552760663385           0.8481404176605462 0.09981080227574216          1.0000   
         C         C         1.0       0.21697653024948713           0.8254482785162142 0.08501473930347081          1.0000   
         C         C         1.0       0.22814978962273605           0.7996445653320962 0.062305000548255635         1.0000   
         C         C         1.0       0.25928663397571144           0.803073813065644  0.05375110479893699          1.0000   
         C         C         1.0       0.15531704023525852           0.8003684008257961 0.09259575418305939          1.0000   
         C         C         1.0       0.12176444422223127           0.8037843965329099 0.09400573338125917          1.0000   
         C         C         1.0       0.10286739915125986           0.7659271374499105 0.09374234724891074          1.0000   
         C         C         1.0       0.115831382745674   0.7233451201387999  0.09376328531348842          1.0000   
         C         C         1.0       0.14958640050410943           0.7202460264583375 0.09427018677211152          1.0000   
         C         C         1.0       0.16936639115982807           0.7584669103596802 0.09702934857917556          1.0000   
         C         C         1.0       0.1799628990810739  0.8651987171017343  0.13840927236437303          1.0000   
         C         C         1.0       0.1863144729619421  0.8962239417273552  0.158714013923127  1.0000   
         C         C         1.0       0.18599121656386153           0.9407625721311397 0.15339088025391584          1.0000   
         C         C         1.0       0.17784481422236353           0.9555539911805675 0.12715840364943262          1.0000   
         C         C         1.0       0.16954808969436724           0.9235993267166394 0.1076268978499884 1.0000   
         C         C         1.0       0.17283594189819718           0.8773206650952754 0.11118733073843916          1.0000   
         H         H         1.0       0.23059580897011248           0.9391075911695212 0.9324437075541667 1.0000   
         H         H         1.0       0.23527186400952585           0.8339345862121992 0.9924903119873035 1.0000   
         H         H         1.0       0.2917602794110547  0.8245057166243319  0.9804663661236399 1.0000   
         H         H         1.0       0.2821721428174264  0.9186189762800474  0.9193113455435182 1.0000   
         H         H         1.0       0.18652681470165888           0.7968322244132058 0.9771103818944381 1.0000   
         H         H         1.0       0.17241820599127664           0.7367380149704245 0.9431790957903098 1.0000   
         H         H         1.0       0.16988972046160378           0.8373806636909611 0.8817718428991171 1.0000   
         H         H         1.0       0.17737131125211747           0.8933105787343726 0.9129794601751718 1.0000   
         H         H         1.0       0.21646302799592332           0.9324587044673125 0.019226847674760128         1.0000   
         H         H         1.0       0.21086856729736866           0.9138276835124218 0.06489924958545241          1.0000   
         H         H         1.0       0.13855403773856587           0.8173661882276355 0.04044613046795731          1.0000   
         H         H         1.0       0.14326510577730403           0.8360036891369137 0.9966023221453403 1.0000   
         H         H         1.0       0.2891415198961194  0.8666015792379969  0.10423363843249604          1.0000   
         H         H         1.0       0.23584966358995849           0.8703350421519089 0.11693979292421608          1.0000   
         H         H         1.0       0.21189643946903908           0.7789112703272787 0.04844569532014379          1.0000   
         H         H         1.0       0.2623981616931383  0.7878374708717018  0.034054682808939606         1.0000   
         H         H         1.0       0.10902050574162968           0.8366095726234968 0.09476462895180884          1.0000   
         H         H         1.0       0.07744765914216556           0.7716949600105691 0.0901911680323937 1.0000   
         H         H         1.0       0.1612108888978925  0.6885209435101481  0.09799879427574285          1.0000   
         H         H         1.0       0.19429952663896555           0.7524918512415751 0.1016843205567581 1.0000   
         H         H         1.0       0.18435984812408124           0.8292269060822883 0.1412734528994756 1.0000   
         H         H         1.0       0.19137015415147662           0.8851943210198336 0.17842554350216402          1.0000   
         H         H         1.0       0.17410077879217373           0.992390304102284  0.12182736277593831          1.0000   
         H         H         1.0       0.16502534988103287           0.9360248190024024 0.0870406732014952 1.0000   
         C         C         1.0       0.08453930907708478           0.9744380205134423 0.816821016805596  1.0000   
         C         C         1.0       0.05805178732059655           0.9545877574448721 0.8294992425363079 1.0000   
         C         C         1.0       0.05070314200229548           0.9108550587173658 0.8219751017475309 1.0000   
         C         C         1.0       0.06468624592364862           0.8894740547855932 0.7983130973691716 1.0000   
         C         C         1.0       0.09061113532656251           0.9103179873640765 0.7859849029217642 1.0000   
         C         C         1.0       0.10120087931335046           0.9525429734275477 0.7948395478617726 1.0000   
         H         H         1.0       0.04437747417670497           0.9680726038501648 0.8473812553229413 1.0000   
         H         H         1.0       0.030813001018541442          0.8942363784407433 0.8321536086477697 1.0000   
         H         H         1.0       0.10086286664823277           0.9014609939257276 0.766750318475036  1.0000   
         H         H         1.0       0.12106756864127338           0.9697062784191645 0.7865842087128168 1.0000   
         C         C         1.0       0.9971862255858789  0.8563704000302581  0.7946590438417962 1.0000   
         C         C         1.0       0.021571124773658724          0.825735975181016  0.7989895900252267 1.0000   
         C         C         1.0       0.012387413797099811          0.7864396624864544 0.8098340836923674 1.0000   
         C         C         1.0       0.9798414210510632  0.7775078616097241  0.8162984520829731 1.0000   
         C         C         1.0       0.49613504353938426           0.8578599489975288 0.7872987343373055 1.0000   
         C         C         1.0       0.5044165158876879  0.8961120594509192  0.7754653151267535 1.0000   
         C         C         1.0       0.057196812379273515          0.8388216608829795 0.791594373255983  1.0000   
         C         C         1.0       0.08519872351345593           0.8149944988656863 0.8095177390380612 1.0000   
         C         C         1.0       0.11468606971612767           0.7999856097321023 0.7968711188326811 1.0000   
         C         C         1.0       0.13884932978355916           0.7818661335401506 0.8131150353959452 1.0000   
         C         C         1.0       0.13416333841955147           0.7767920586115331 0.8410284287546238 1.0000   
         C         C         1.0       0.10609348106963673           0.7922302484706216 0.853357199621879  1.0000   
         C         C         1.0       0.08176792071958763           0.809964686497062  0.837297856484781  1.0000   
         C         C         1.0       0.048471551391206444          0.8553780208553209 0.7407733299599797 1.0000   
         C         C         1.0       0.04806463884835615           0.8463612281993623 0.7131737434188846 1.0000   
         C         C         1.0       0.04720964259477461           0.8014253142691838 0.7040164399900711 1.0000   
         C         C         1.0       0.05264729771569893           0.7704616944254874 0.7235028273784437 1.0000   
         C         C         1.0       0.056412459705825424          0.7797467424457366 0.7510121271091861 1.0000   
         C         C         1.0       0.05530001922090844           0.8236528521096357 0.760017626804539  1.0000   
         C         C         1.0       0.037965675966005245          0.7873282538055654 0.6726882969062528 1.0000   
         C         C         1.0       0.4588287628554353  0.8427801568260629  0.7138084522637743 1.0000   
         C         C         1.0       0.4706825437420489  0.8631196072390388  0.6905086507767779 1.0000   
         C         C         1.0       0.5003177438403625  0.8502158843511429  0.6805042274569605 1.0000   
         C         C         1.0       0.5180932019696461  0.8134986006672451  0.6905601887902537 1.0000   
         C         C         1.0       0.5044420324560709  0.7937339531999563  0.7137778134800664 1.0000   
         C         C         1.0       0.47524450678932256           0.8085129640404167 0.7241850151039714 1.0000   
         C         C         1.0       0.05282732632413579           0.7389326954948182 0.6641671784280324 1.0000   
         C         C         1.0       0.0854388232425473  0.7296326971551265  0.6678392751977104 1.0000   
         C         C         1.0       0.09757978105914965           0.6865562411326009 0.6634475442063615 1.0000   
         C         C         1.0       0.07636433846163553           0.6527932316204113 0.6559055416071484 1.0000   
         C         C         1.0       0.04501851703979015           0.6627536174098749 0.6485589524124281 1.0000   
         C         C         1.0       0.032561499467829984          0.7054283670099486 0.6527073240530538 1.0000   
         C         C         1.0       0.04630724700626024           0.8095193124703612 0.6220093225756802 1.0000   
         C         C         1.0       0.05946091158404929           0.8372647807117961 0.6024397004240561 1.0000   
         C         C         1.0       0.0844601096861972  0.86676672655393    0.6089520466999284 1.0000   
         C         C         1.0       0.09768558803896905           0.8686290952376253 0.6340269488782738 1.0000   
         C         C         1.0       0.08508234923439116           0.8405815929678804 0.654421612566841  1.0000   
         C         C         1.0       0.05762470723585848           0.8141145146205478 0.6493278030833738 1.0000   
         H         H         1.0       0.004410002873841967          0.8879263782504777 0.78803088300308   1.0000   
         H         H         1.0       0.02832445032434571           0.759751180088119  0.815259530114754  1.0000   
         H         H         1.0       0.5145803818928232  0.7986021832296403  0.8041193482950015 1.0000   
         H         H         1.0       0.48696763708651675           0.9216249468349699 0.773395449517522  1.0000   
         H         H         1.0       0.11783896462141487           0.803750462757879  0.7762926893207515 1.0000   
         H         H         1.0       0.16037907125731798           0.771518339062619  0.8032744687287702 1.0000   
         H         H         1.0       0.10174009567892162           0.7913253661231002 0.8769481005805922 1.0000   
         H         H         1.0       0.05939139191043995           0.8204502039804096 0.8468485154080791 1.0000   
         H         H         1.0       0.047874061162963805          0.8905684081077021 0.7453208615700645 1.0000   
         H         H         1.0       0.04204629256255722           0.8735220687359503 0.7000394115471651 1.0000   
         H         H         1.0       0.055500717941448105          0.7341315101600056 0.7180417827190996 1.0000   
         H         H         1.0       0.06069714508294128           0.7526632960452136 0.7666548974330009 1.0000   
         H         H         1.0       0.45832722898511635           0.8890078676336575 0.6794995377837845 1.0000   
         H         H         1.0       0.00043162881095226723        0.8577671848793633 0.6499016378041264 1.0000   
         H         H         1.0       0.5161178721103109  0.7658747390813463  0.7227785220151253 1.0000   
         H         H         1.0       0.4645783046631899  0.789845747869624   0.7403765713260756 1.0000   
         H         H         1.0       0.10270458839755292           0.7581684451662271 0.6711674506913476 1.0000   
         H         H         1.0       0.1232658796396638  0.6828078723217399  0.6691875088246192 1.0000   
         H         H         1.0       0.029430810727182646          0.6351384242430667 0.6430816558257044 1.0000   
         H         H         1.0       0.007763723748044471          0.7101749966578602 0.648523841173044  1.0000   
         H         H         1.0       0.029054585378303497          0.7846745452421585 0.6178922111282126 1.0000   
         H         H         1.0       0.047754772505000063          0.8348179134978301 0.5826920324694731 1.0000   
         H         H         1.0       0.11591985102894105           0.8938659042365834 0.640240804623225  1.0000   
         H         H         1.0       0.0927136536633043  0.849979353692181   0.6750097336278318 1.0000   
         C         C         1.0       0.03725155322526939           0.34870529772377623          0.5127882434352717 1.0000   
         C         C         1.0       0.049161873388947654          0.384915623021431  0.5277595554131933 1.0000   
         C         C         1.0       0.07819224295573164           0.40478605644096777          0.5198513956531603 1.0000   
         C         C         1.0       0.09099258440120017           0.39402128159671357          0.4940260018744824 1.0000   
         C         C         1.0       0.07938683183165    0.3551668166444796  0.48153783813663836          1.0000   
         C         C         1.0       0.053032422877430915          0.33201627065917194          0.48986631045443146          1.0000   
         H         H         1.0       0.03552576108413097           0.39851863499728357          0.5458443179264802 1.0000   
         H         H         1.0       0.09136924800957187           0.4329177217714301 0.530133617396397  1.0000   
         H         H         1.0       0.09275663619193912           0.34017136621965566          0.4640743332455606 1.0000   
         H         H         1.0       0.046095147707255826          0.30088792758599725          0.48024017081130976          1.0000   
         C         C         1.0       0.16571968648665777           0.41233759588280344          0.5215280723355427 1.0000   
         C         C         1.0       0.14855111055503442           0.3933977698413808 0.49914310445955995          1.0000   
         C         C         1.0       0.1567673617352707  0.3500184603698083  0.49068533610573495          1.0000   
         C         C         1.0       0.17773015152110025           0.3247043346349393 0.5065391152822233 1.0000   
         C         C         1.0       0.1913620343967353  0.343778207311298   0.529509907303395  1.0000   
         C         C         1.0       0.1867671424868131  0.38811027312199325           0.536564462035497  1.0000   
         C         C         1.0       0.12165733294899649           0.4199809067639046 0.48274127103881   1.0000   
         C         C         1.0       0.12244142410901313           0.4732957464659509 0.4866183763404967 1.0000   
         C         C         1.0       0.15079057803455145           0.49611957224686115          0.4854535830566595 1.0000   
         C         C         1.0       0.15115047820458336           0.5416590754387713 0.485068117092907  1.0000   
         C         C         1.0       0.12310780482200984           0.5666119392831401 0.48109944570686575          1.0000   
         C         C         1.0       0.09468624900447452           0.543832194149136  0.48276948466319974          1.0000   
         C         C         1.0       0.09460090766281931           0.4986643831106449 0.48653117739679513          1.0000   
         C         C         1.0       0.1040378277576645  0.42696526711482014           0.43467511977209883          1.0000   
         C         C         1.0       0.1106829439790758  0.44612435156870833           0.40932645505652576          1.0000   
         C         C         1.0       0.14316744343035992           0.4549375955188044 0.4014725544287628 1.0000   
         C         C         1.0       0.1666028960751597  0.43869436555701974           0.4169076924628353 1.0000   
         C         C         1.0       0.15973398507450573           0.41687156997847646          0.44118503428775363          1.0000   
         C         C         1.0       0.1277362693834394  0.41356586424690744           0.45097969417625117          1.0000   
         C         C         1.0       0.14917635899162243           0.4848935549259853 0.37506162767137025          1.0000   
         C         C         1.0       0.2504768902929668  0.51892898824921    0.37807926508530715          1.0000   
         C         C         1.0       0.2299748631330802  0.5352960989826238  0.39907356071302913          1.0000   
         C         C         1.0       0.19807429398927168           0.5296601450094985 0.39595427208083456          1.0000   
         C         C         1.0       0.18501568618193936           0.5056085292536303 0.3739053754031732 1.0000   
         C         C         1.0       0.20435546598477364           0.49836218079797673          0.3511061945178803 1.0000   
         C         C         1.0       0.23729129153422227           0.5021531359593145 0.3533407478419174 1.0000   
         C         C         1.0       0.1290187932083119  0.532116795638504   0.3761903652442996 1.0000   
         C         C         1.0       0.12481810875216842           0.5562552274122531 0.352897644356171  1.0000   
         C         C         1.0       0.10301841000731388           0.5896660930477098 0.352359891750137  1.0000   
         C         C         1.0       0.0871191093394898  0.6033131430622487  0.3757341878494705 1.0000   
         C         C         1.0       0.09689457161716672           0.586553429631123  0.40050485845133743          1.0000   
         C         C         1.0       0.11600435639475405           0.5491832064480073 0.40108932358340005          1.0000   
         C         C         1.0       0.10449847177819972           0.45470454408923766          0.3410356737147424 1.0000   
         C         C         1.0       0.09256073357412349           0.42319858718538306          0.3223823765693609 1.0000   
         C         C         1.0       0.11453091882939015           0.39113520843085314          0.3116546822310625 1.0000   
         C         C         1.0       0.14458284236220606           0.3885615820623874 0.32246672676034566          1.0000   
         C         C         1.0       0.15512256061789065           0.4186862667404631 0.3426823538601217 1.0000   
         C         C         1.0       0.13620313888043792           0.45177349915325743          0.3512885277573361 1.0000   
         H         H         1.0       0.1579417887321521  0.4433250452466235  0.5301415217118491 1.0000   
         H         H         1.0       0.1472519927347715  0.3336767848166561  0.472253959314956  1.0000   
         H         H         1.0       0.1814497015631535  0.2920643550103899  0.4989476617362355 1.0000   
         H         H         1.0       0.19734235055784174           0.40374681509628674          0.5542576574371996 1.0000   
         H         H         1.0       0.174478299941967   0.480367242080899   0.48507397520877493          1.0000   
         H         H         1.0       0.17335119154947257           0.5606510529796921 0.4820758787856831 1.0000   
         H         H         1.0       0.07296613730657996           0.5613519289272152 0.47852929931382454          1.0000   
         H         H         1.0       0.0722934438631876  0.47860842252217334           0.48499121516479915          1.0000   
         H         H         1.0       0.079975382344027   0.4250306841242448  0.44229717171568966          1.0000   
         H         H         1.0       0.09067840479538973           0.45765335827284886          0.39745328216756975          1.0000   
         H         H         1.0       0.190715418114321   0.4392313316397341  0.40910383618588936          1.0000   
         H         H         1.0       0.18025821092568378           0.41102569438795183          0.45443976665240127          1.0000   
         H         H         1.0       0.2384939013283529  0.5563102716855152  0.41646663956604313          1.0000   
         H         H         1.0       0.18200227933034693           0.5384411626807472 0.41332462771372663          1.0000   
         H         H         1.0       0.1955970648051464  0.48359822146122167           0.3314526769434236 1.0000   
         H         H         1.0       0.252048788738013   0.48453316969331395           0.33729645998894064          1.0000   
         H         H         1.0       0.13234558655082101           0.5454691577505753 0.33203746371745346          1.0000   
         H         H         1.0       0.0965839547904757  0.6008825734043509  0.33200230201892816          1.0000   
         H         H         1.0       0.08289803765923559           0.5996233508299421 0.41703168789038947          1.0000   
         H         H         1.0       0.1201689167479307  0.5367461539515399  0.4213943088385416 1.0000   
         H         H         1.0       0.08820286437980591           0.479852323827981  0.34936665057904537          1.0000   
         H         H         1.0       0.06709116402731972           0.42586795675726835          0.31756084255314687          1.0000   
         H         H         1.0       0.1615622630249676  0.36290408480866126           0.31551676890255204          1.0000   
         H         H         1.0       0.1789001092252079  0.4123176914044935  0.35072425552916253          1.0000   
         C         C         1.0       0.1279435828695681  0.43813940333185847           0.17133274066277238          1.0000   
         C         C         1.0       0.1271757568729755  0.4563897033994291  0.19672955110792642          1.0000   
         C         C         1.0       0.09989017610027953           0.4748587117928102 0.2087437615698651 1.0000   
         C         C         1.0       0.07086399369282374           0.47553653843599314          0.1934898724290212 1.0000   
         C         C         1.0       0.07183291886537274           0.4572838343278504 0.16695515423271873          1.0000   
         C         C         1.0       0.10042490125158463           0.43833599254147454          0.15631450190556417          1.0000   
         H         H         1.0       0.14751800569883364           0.45835729482829474          0.2112155012645933 1.0000   
         H         H         1.0       0.10264444785095082           0.49235242286818637          0.22736698755844403          1.0000   
         H         H         1.0       0.05226344758210436           0.45973368432798745          0.15309513068863026          1.0000   
         H         H         1.0       0.09991452612336285           0.4271235850934878 0.13483120668212348          1.0000   
         C         C         1.0       0.49032886935530134           0.43987621498539564          0.19085979258326585          1.0000   
         C         C         1.0       0.4950574877508832  0.48496680686801785           0.1927713569789815 1.0000   
         C         C         1.0       0.4672629077659545  0.5123043562196951  0.18960343959446366          1.0000   
         C         C         1.0       0.4393294746263947  0.4953871615501371  0.17683857420586443          1.0000   
         C         C         1.0       0.43782774719384654           0.44967720361141267          0.17330702782599822          1.0000   
         C         C         1.0       0.4618831560547763  0.42170654238982425           0.18199134822855184          1.0000   
         C         C         1.0       0.041945527146699996          0.5072996411339151 0.20307509709896146          1.0000   
         C         C         1.0       0.05420552203029356           0.5542988757044941 0.1937123890897454 1.0000   
         C         C         1.0       0.06964874041497787           0.5830746668349743 0.212148716276776  1.0000   
         C         C         1.0       0.07941186989616354           0.6247171331738498 0.20460781357930288          1.0000   
         C         C         1.0       0.07457402148220549           0.6387460743963329 0.1785401305701267 1.0000   
         C         C         1.0       0.06346358489266417           0.606704829752989  0.15903785569150597          1.0000   
         C         C         1.0       0.0512920487779249  0.5651157617947752  0.16639307771590536          1.0000   
         C         C         1.0       0.009270730616869347          0.5343654690074248 0.24534065702918975          1.0000   
         C         C         1.0       0.49574984223377644           0.5384331262720912 0.26772036373560243          1.0000   
         C         C         1.0       0.5028644379176237  0.5025556133951768  0.2837279891587711 1.0000   
         C         C         1.0       0.026147223351232856          0.46037811887032626          0.27448710115002556          1.0000   
         C         C         1.0       0.04070887357021356           0.4681022930622792 0.249483527117111  1.0000   
         C         C         1.0       0.03222482228663403           0.5032904502319947 0.2341774141013031 1.0000   
         C         C         1.0       0.48275712873034066           0.49191177991429497          0.31126659473970225          1.0000   
         C         C         1.0       0.37779281349180766           0.48413507464499395          0.30611316020510654          1.0000   
         C         C         1.0       0.3962429512471022  0.48273900321864677           0.28280603005823546          1.0000   
         C         C         1.0       0.4287226385705811  0.48999425240870287           0.284054324172962  1.0000   
         C         C         1.0       0.44487177271357214           0.4984277072357733 0.30819116725840384          1.0000   
         C         C         1.0       0.4250300116162893  0.5024897642109785  0.332014610600799  1.0000   
         C         C         1.0       0.3925056268788078  0.4958648892517584  0.3304741180883587 1.0000   
         C         C         1.0       0.4982116233245998  0.5324786507884121  0.3301055878922859 1.0000   
         C         C         1.0       0.4836797627347871  0.5747273882868298  0.3317118816696017 1.0000   
         C         C         1.0       0.49780134843590773           0.6101158363671854 0.34720462069654884          1.0000   
         C         C         1.0       0.010066639558244795          0.5712081480532905 0.3653401007805774 1.0000   
         C         C         1.0       0.026122895123240245          0.5311155536634964 0.35893232144853576          1.0000   
         C         C         1.0       0.013135701677557479          0.4996416799435608 0.3422074893802976 1.0000   
         C         C         1.0       0.4878240219389897  0.43336696398387897           0.3487776539199366 1.0000   
         C         C         1.0       0.49096391030543923           0.3885606126512898 0.35580191411845813          1.0000   
         C         C         1.0       0.48552819332234026           0.3541004218474968 0.3372163848745949 1.0000   
         C         C         1.0       0.47394189712284185           0.3625906345838611 0.3111159418585073 1.0000   
         C         C         1.0       0.47278337548418703           0.4066242334383342 0.30383373213098713          1.0000   
         C         C         1.0       0.48193765270619277           0.44293024367980244          0.32144898823779455          1.0000   
         H         H         1.0       0.5091969734100678  0.4167464470742661  0.19770757269922148          1.0000   
         H         H         1.0       0.4674364011021582  0.5484897382792494  0.19422688981256472          1.0000   
         H         H         1.0       0.4197815973371593  0.5185396796142726  0.1717395855104876 1.0000   
         H         H         1.0       0.45862185417613066           0.38581321608648855          0.18067186512401115          1.0000   
         H         H         1.0       0.07326560972943039           0.5760985584109847 0.23390541624387937          1.0000   
         H         H         1.0       0.08872265897649541           0.6465722384610996 0.22179363729112145          1.0000   
         H         H         1.0       0.05769669603849913           0.6204375807663006 0.13820348637404148          1.0000   
         H         H         1.0       0.03993474951583905           0.5417964501734821 0.15243479496685391          1.0000   
         H         H         1.0       0.5025758061568595  0.5747163898297308  0.2306690877028128 1.0000   
         H         H         1.0       0.4802849188073754  0.5648825035257825  0.27675957613967517          1.0000   
         H         H         1.0       0.031573044369235644          0.4302457717703249 0.2850675119901606 1.0000   
         H         H         1.0       0.057095563177624944          0.44103018465567917          0.24094520101533018          1.0000   
         H         H         1.0       0.38532918464941335           0.46747925477723845          0.26541045035895705          1.0000   
         H         H         1.0       0.4423939472009978  0.48594879451117345           0.2650622630770047 1.0000   
         H         H         1.0       0.4394973970314828  0.5029170301863184  0.3506032564927184 1.0000   
         H         H         1.0       0.3802263051755722  0.4863950132558936  0.3489910458409249 1.0000   
         H         H         1.0       0.46070220170393367           0.5803421845446449 0.3222137739176993 1.0000   
         H         H         1.0       0.4866155674595127  0.6411883295760057  0.34645652949580547          1.0000   
         H         H         1.0       0.05044553188916701           0.5255752411158661 0.36692453072148146          1.0000   
         H         H         1.0       0.02557301350117652           0.46963963234017786          0.33846969249339987          1.0000   
         H         H         1.0       0.49384145162720977           0.45482978027036214          0.36488744380234706          1.0000   
         H         H         1.0       0.4989631982679605  0.3807931448314474  0.37609944569376014          1.0000   
         H         H         1.0       0.47078453121302716           0.3338496539352531 0.29796982025936397          1.0000   
         H         H         1.0       0.4668960293525669  0.4131487023721767  0.2834695588576316 1.0000   
         C         C         1.0       0.3206414547768518  0.3806259030327796  0.30652469664209475          1.0000   
         C         C         1.0       0.28766407934968663           0.389075496680152  0.31232743987873773          1.0000   
         C         C         1.0       0.2644893954690532  0.3665025965487236  0.2953066794080712 1.0000   
         C         C         1.0       0.2726798830219824  0.33259620479417984           0.2760873026135296 1.0000   
         C         C         1.0       0.3052419955750286  0.32296156457580105           0.2729451777631578 1.0000   
         C         C         1.0       0.3290728420978967  0.34745116781812274           0.28775138676790984          1.0000   
         H         H         1.0       0.2794339734648267  0.41527220276138677           0.32830155849854487          1.0000   
         H         H         1.0       0.23977790737796023           0.3742514379604336 0.29751546636271514          1.0000   
         H         H         1.0       0.3166365722483813  0.29689719099744694           0.2593706721714383 1.0000   
         H         H         1.0       0.3547340361661516  0.3439421852347411  0.282532396407223  1.0000   
         C         C         1.0       0.20331496420874576           0.3689327226843079 0.25273571685078067          1.0000   
         C         C         1.0       0.21113210840304422           0.3240415504712351 0.2557148521335694 1.0000   
         C         C         1.0       0.1856339492035355  0.2959618042909945  0.25422910578504904          1.0000   
         C         C         1.0       0.1547013652147694  0.3099249853148974  0.2543627286453052 1.0000   
         C         C         1.0       0.14678992226091675           0.3551038081550406 0.2565600298300688 1.0000   
         C         C         1.0       0.1711410287445561  0.38628036858116566           0.2566145705445325 1.0000   
         C         C         1.0       0.2467263981936112  0.30384438706741607           0.26029695636769973          1.0000   
         C         C         1.0       0.24589040711320745           0.26204960623242474          0.28105418250115205          1.0000   
         C         C         1.0       0.2637187653157216  0.2243493266069404  0.277524099319458  1.0000   
         C         C         1.0       0.26289876467032897           0.18841154581269406          0.2955030632593253 1.0000   
         C         C         1.0       0.24081791158122598           0.18956292542411907          0.3164303891435058 1.0000   
         C         C         1.0       0.2207348956920747  0.22642545946086373           0.31971723312187555          1.0000   
         C         C         1.0       0.22436178378352253           0.2635496418550856 0.30273360582783293          1.0000   
         C         C         1.0       0.2729708489327395  0.3224426239217231  0.21285552927859305          1.0000   
         C         C         1.0       0.28060414450250437           0.3136261422591832 0.1863482500147211 1.0000   
         C         C         1.0       0.2697405473709781  0.27501358969049516           0.17178840187609945          1.0000   
         C         C         1.0       0.2544643298907217  0.24317509741122054           0.18729943908498434          1.0000   
         C         C         1.0       0.24823328624449514           0.25236928004008624          0.21469433646146321          1.0000   
         C         C         1.0       0.2579506056702292  0.29153060660297936           0.2290406058825897 1.0000   
         C         C         1.0       0.2731583532808884  0.27324106276672216           0.13905915392829832          1.0000   
         C         C         1.0       0.18884094032097196           0.36009480573048197          0.12596769858137372          1.0000   
         C         C         1.0       0.21876874674916    0.37812643700097004           0.1270150425298653 1.0000   
         C         C         1.0       0.24503722410678766           0.35163624449529624          0.1302654826400529 1.0000   
         C         C         1.0       0.24168692138380946           0.3055050642941785 0.13339297444435627          1.0000   
         C         C         1.0       0.21120462882130825           0.28837829660055797          0.13317942351132975          1.0000   
         C         C         1.0       0.18455889499284842           0.3150775626849973 0.13230373211888513          1.0000   
         C         C         1.0       0.2695424212518193  0.2234826924358294  0.12546519464113626          1.0000   
         C         C         1.0       0.285735892144592   0.185406304049558   0.1358502807176953 1.0000   
         C         C         1.0       0.28777577049898423           0.14569182849732915          0.12114975582603135          1.0000   
         C         C         1.0       0.27322758130943914           0.14048580379792466          0.09742652233448372          1.0000   
         C         C         1.0       0.2565368315106436  0.17526597421599774           0.08615386081761564          1.0000   
         C         C         1.0       0.25410337167934066           0.21537534322860388          0.1006352825499428 1.0000   
         C         C         1.0       0.30933077735107783           0.3083252505227702 0.10361863895433067          1.0000   
         C         C         1.0       0.33674841299207164           0.3234063187358551 0.09350087785352128          1.0000   
         C         C         1.0       0.3644879185139077  0.32029731345540025           0.10868862773408647          1.0000   
         C         C         1.0       0.36396914078962755           0.29870992889109105          0.133732088575638  1.0000   
         C         C         1.0       0.3351832633302249  0.2838544586271016  0.14393674251705035          1.0000   
         C         C         1.0       0.30715899347829506           0.2895797401345331 0.12917405778671057          1.0000   
         H         H         1.0       0.22219052650732388           0.3930805279613063 0.2532884166316524 1.0000   
         H         H         1.0       0.18810392562706885           0.25937414277288207          0.25205709851654245          1.0000   
         H         H         1.0       0.13633986743866908           0.28458839538466035          0.25420321650923094          1.0000   
         H         H         1.0       0.16729020761726346           0.42169581210001833          0.25982098064048353          1.0000   
         H         H         1.0       0.2790589927709292  0.21790803814588383           0.2611449092411923 1.0000   
         H         H         1.0       0.27745027959119395           0.16017765930751654          0.2913522266559691 1.0000   
         H         H         1.0       0.20553588767397052           0.2294335455038564 0.3374111159868047 1.0000   
         H         H         1.0       0.20938113584996423           0.2921718891709204 0.3076583424511182 1.0000   
         H         H         1.0       0.2797012277977024  0.3548460095626244  0.2214917012668908 1.0000   
         H         H         1.0       0.28862758699626256           0.3440400139129151 0.17723359457867904          1.0000   
         H         H         1.0       0.24299021021175823           0.21415689081119096          0.17840228680122364          1.0000   
         H         H         1.0       0.23250653645393238           0.2287957141548711 0.2261467850553246 1.0000   
         H         H         1.0       0.22256498385066184           0.4136502321202794 0.12293553956038697          1.0000   
         H         H         1.0       0.26913035489940534           0.36435833581543264          0.13397261375659195          1.0000   
         H         H         1.0       0.20828630393571818           0.2552345018555301 0.13902391091159622          1.0000   
         H         H         1.0       0.1616455441990072  0.30233631090647267           0.1369240921207528 1.0000   
         H         H         1.0       0.29771613510790895           0.19215883539483494          0.1544692503750864 1.0000   
         H         H         1.0       0.3008336779760509  0.11767238855790849           0.12991793548148853          1.0000   
         H         H         1.0       0.24669529656499944           0.17452712993490196          0.06557095919882029          1.0000   
         H         H         1.0       0.24045986417986334           0.2411805917039068 0.09024397460394376          1.0000   
         H         H         1.0       0.28899233630168425           0.31138637335992475          0.09105629943525975          1.0000   
         H         H         1.0       0.336738566701208   0.33684397875302846           0.07265427171341911          1.0000   
         H         H         1.0       0.3844413655972517  0.29541288271229266           0.1462402535384159 1.0000   
         H         H         1.0       0.3361101950537119  0.2690969239834232  0.16383973353933587          1.0000   
         C         C         1.0       0.30893483274174194           0.44716861355472565          0.4054807016947281 1.0000   
         C         C         1.0       0.2985089581760044  0.4175497365977012  0.38513350102855576          1.0000   
         C         C         1.0       0.3092335400928999  0.37207885506292265           0.3837990427152809 1.0000   
         C         C         1.0       0.3310534709791145  0.35594803699210054           0.4034175443901841 1.0000   
         C         C         1.0       0.3438438156985415  0.38833681919788204           0.42177743962453845          1.0000   
         C         C         1.0       0.3327038194284795  0.43260388957406776           0.4230427075868019 1.0000   
         H         H         1.0       0.2797676843078997  0.4278245765368575  0.37067851734537816          1.0000   
         H         H         1.0       0.29651435912596597           0.34840108969581124          0.3689704452826889 1.0000   
         H         H         1.0       0.36213314895152837           0.380479280277602  0.43666033369879304          1.0000   
         H         H         1.0       0.34384536561184115           0.4545171600367313 0.4381182203118859 1.0000   
         C         C         1.0       0.37306905588905315           0.30017024708453494          0.36033832157326756          1.0000   
         C         C         1.0       0.37336371720935785           0.3050237106836673 0.3888090313069306 1.0000   
         C         C         1.0       0.4020144891241605  0.3102442458440823  0.401720582978096  1.0000   
         C         C         1.0       0.43016777343831286           0.30035962835746577          0.387365464040704  1.0000   
         C         C         1.0       0.4292686179968588  0.294028979059127   0.358824915399353  1.0000   
         C         C         1.0       0.40192425452890157           0.29790247354278815          0.3450523040511229 1.0000   
         C         C         1.0       0.3392772874500984  0.30403401682036896           0.40486139310043945          1.0000   
         C         C         1.0       0.31162867311076525           0.2719057436474105 0.3902828598834192 1.0000   
         C         C         1.0       0.3197106981649992  0.23346809317782666           0.37364490313384013          1.0000   
         C         C         1.0       0.2966233941172273  0.2030458240782583  0.3671999538126672 1.0000   
         C         C         1.0       0.26533158200288226           0.20932825580641376          0.37613576216726735          1.0000   
         C         C         1.0       0.2566134254437264  0.24815643723738495           0.3902545714382951 1.0000   
         C         C         1.0       0.28000107891432985           0.2775670002442895 0.3994987033840578 1.0000   
         C         C         1.0       0.32523039324999514           0.30186242231097876          0.45898661181685046          1.0000   
         C         C         1.0       0.3340393447358481  0.2840263280736226  0.4841621662661453 1.0000   
         C         C         1.0       0.3560673258185423  0.24853271800010127           0.4855130539951122 1.0000   
         C         C         1.0       0.3669954725135129  0.22702922289691865           0.46188415358101637          1.0000   
         C         C         1.0       0.35885189017620445           0.24345719223501194          0.43699083441098996          1.0000   
         C         C         1.0       0.3413391287071734  0.28233902777186554           0.43524092780246604          1.0000   
         C         C         1.0       0.3715635396793307  0.23354243690849594           0.5137756357739043 1.0000   
         C         C         1.0       0.4479255192837092  0.33365516648086835           0.5101707831098404 1.0000   
         C         C         1.0       0.42097053583652094           0.3430264575528682 0.5260552244904426 1.0000   
         C         C         1.0       0.39655803142663576           0.31037144838522596          0.5271758920142842 1.0000   
         C         C         1.0       0.4001404564981725  0.2672148332868014  0.5149350578285653 1.0000   
         C         C         1.0       0.42785844535646655           0.26019643049362984          0.49930281434121915          1.0000   
         C         C         1.0       0.45145738702876986           0.2910665318329597 0.49903715396490134          1.0000   
         C         C         1.0       0.3816873258544696  0.18160539003956616           0.5168303435274303 1.0000   
         C         C         1.0       0.3632747174567319  0.14816339147809143           0.5038498740544174 1.0000   
         C         C         1.0       0.370553562627577   0.10376638084809918           0.5078930242925488 1.0000   
         C         C         1.0       0.39723321459879046           0.09143825810853118          0.5233225991835897 1.0000   
         C         C         1.0       0.41556388687146806           0.12510212192914663          0.5360429883841842 1.0000   
         C         C         1.0       0.40838208014813226           0.16916382401648508          0.5323279647356685 1.0000   
         C         C         1.0       0.3551176202397308  0.2443926188274152  0.566374947441588  1.0000   
         C         C         1.0       0.3348499790088439  0.23419094008249364           0.5871028751714213 1.0000   
         C         C         1.0       0.30601317870807043           0.2117608241123603 0.5817170744213328 1.0000   
         C         C         1.0       0.2939137955805286  0.20939696962609122           0.5562322326663003 1.0000   
         C         C         1.0       0.31470949566936035           0.22115464169356833          0.5351940300504905 1.0000   
         C         C         1.0       0.3463729819668177  0.23590029436090793           0.5391175588534967 1.0000   
         H         H         1.0       0.3518809779188476  0.30317812385857423           0.3474493457405689 1.0000   
         H         H         1.0       0.4020069352012738  0.3121342672739686  0.4241861576577244 1.0000   
         H         H         1.0       0.4517930627422828  0.29920682561855727           0.3984924808581082 1.0000   
         H         H         1.0       0.4028133990878448  0.2878831653131602  0.3231627446331419 1.0000   
         H         H         1.0       0.3435517622995714  0.22769580475839307           0.366183892258252  1.0000   
         H         H         1.0       0.30669517012243663           0.17376067899836992          0.3555592379145719 1.0000   
         H         H         1.0       0.23250112545529836           0.24945855027221617          0.3986597484857093 1.0000   
         H         H         1.0       0.27003285971738544           0.3057016419820349 0.41272941476452274          1.0000   
         H         H         1.0       0.3114005837885792  0.3334294637773689  0.457952533479534  1.0000   
         H         H         1.0       0.32454273106216613           0.301662229121763  0.5011593940350174 1.0000   
         H         H         1.0       0.3838084358460616  0.19790663909291586           0.46061961652770533          1.0000   
         H         H         1.0       0.37027266882524895           0.22836466809215133          0.4203977120038726 1.0000   
         H         H         1.0       0.41662030823038226           0.374634285123369  0.5376641140757824 1.0000   
         H         H         1.0       0.3758874337309265  0.3235730082709488  0.5396646801339265 1.0000   
         H         H         1.0       0.4306902542213324  0.2268302697582336  0.48908766406791504          1.0000   
         H         H         1.0       0.47361371622482334           0.2821008937807901 0.4877865094249394 1.0000   
         H         H         1.0       0.34097580288937485           0.1538754495919111 0.4933597633280373 1.0000   
         H         H         1.0       0.3552486713667712  0.07689153579883291           0.49903952600400536          1.0000   
         H         H         1.0       0.4356983887539177  0.1163609312558952  0.549405946557875  1.0000   
         H         H         1.0       0.4234027320571659  0.19555429197862928           0.5423962026746896 1.0000   
         H         H         1.0       0.37955250145428476           0.25965241412509044          0.569225586988829  1.0000   
         H         H         1.0       0.3436421053216941  0.2440382850978289  0.6072032442968569 1.0000   
         H         H         1.0       0.27088877351202956           0.19037512762042372          0.5531170046492886 1.0000   
         H         H         1.0       0.30654119986563444           0.2124112210429687 0.5139216108331395 1.0000   
         C         C         1.0       0.3665074318705961  0.6762707492209329  0.4293240865574992 1.0000   
         C         C         1.0       0.3633400892798293  0.7077291767449934  0.4092184082642054 1.0000   
         C         C         1.0       0.33734355977227304           0.7367242860706723 0.4091250602231597 1.0000   
         C         C         1.0       0.31305845381611674           0.7332363149714085 0.42971272115937365          1.0000   
         C         C         1.0       0.31638708599949433           0.7012150303915691 0.4501255687702387 1.0000   
         C         C         1.0       0.34307947776528375           0.6749376156275    0.4501223433242059 1.0000   
         H         H         1.0       0.3785688836292134  0.7070137276182796  0.3908936871890619 1.0000   
         H         H         1.0       0.33460974037514957           0.7607011678612637 0.3920322291594666 1.0000   
         H         H         1.0       0.2995184144776147  0.6945633620857246  0.4657647558809927 1.0000   
         H         H         1.0       0.34665912819692435           0.650388197219538  0.46570342515110386          1.0000   
         C         C         1.0       0.2511853464553953  0.6913784451827589  0.4102815569615938 1.0000   
         C         C         1.0       0.2509307763422656  0.7305539430132718  0.4274300606773853 1.0000   
         C         C         1.0       0.22098798552200932           0.7465781532770096 0.4375590244787091 1.0000   
         C         C         1.0       0.19275017379477893           0.7248250882572331 0.4309254731980962 1.0000   
         C         C         1.0       0.1937492503056983  0.6889849836948206  0.41340112279490615          1.0000   
         C         C         1.0       0.22239973031565552           0.6694960965278443 0.40363455052805836          1.0000   
         C         C         1.0       0.28189304054701386           0.7639047421581321 0.4316685511645304 1.0000   
         C         C         1.0       0.2735424195703539  0.7984560415407543  0.4071117179873701 1.0000   
         C         C         1.0       0.2586878706907012  0.8394951148851255  0.4128753989431972 1.0000   
         C         C         1.0       0.25071135265392747           0.8717473036979196 0.39439756917143   1.0000   
         C         C         1.0       0.2500711743550679  0.8589047181757773  0.3670974700555263 1.0000   
         C         C         1.0       0.2631509088419039  0.8187638631479043  0.35931135570518796          1.0000   
         C         C         1.0       0.27278008613575516           0.7889232729212069 0.3789642871811606 1.0000   
         C         C         1.0       0.2715928229547976  0.785455707832203   0.48179548581291864          1.0000   
         C         C         1.0       0.2708522953026579  0.8177680578393498  0.5020762052848483 1.0000   
         C         C         1.0       0.28679143674456925           0.8582992913950702 0.49974322569584984          1.0000   
         C         C         1.0       0.309365675286351   0.8605231168878981  0.47854140250389354          1.0000   
         C         C         1.0       0.3127339988573308  0.8265805738988569  0.4590740937293874 1.0000   
         C         C         1.0       0.289143336989983   0.792391704046619   0.4582650154449573 1.0000   
         C         C         1.0       0.2751747453536617  0.9031774899808901  0.5166420010294597 1.0000   
         C         C         1.0       0.21471294091934484           0.9545497755168431 0.44964802954101907          1.0000   
         C         C         1.0       0.2025752883272402  0.9268229670359892  0.47023453856476444          1.0000   
         C         C         1.0       0.22116822729283014           0.9133486549014185 0.4907523443279225 1.0000   
         C         C         1.0       0.25313759096212435           0.927183965591356  0.4939290888416895 1.0000   
         C         C         1.0       0.26653627598841095           0.9518346863758648 0.47292062084334563          1.0000   
         C         C         1.0       0.24651653775994992           0.9656643030411733 0.4517519713972715 1.0000   
         C         C         1.0       0.3043703802314272  0.9338411899423498  0.5272609469675203 1.0000   
         C         C         1.0       0.3337257286496914  0.9148521471073746  0.5346194516061362 1.0000   
         C         C         1.0       0.36031299338636796           0.9412985406809814 0.5411529238666177 1.0000   
         C         C         1.0       0.35796582238472957           0.9887953574663658 0.5428655379436982 1.0000   
         C         C         1.0       0.32819035332813673           0.00603128817272114          0.538627888618069  1.0000   
         C         C         1.0       0.3017525389819811  0.9797168380510815  0.5299728230555092 1.0000   
         C         C         1.0       0.23566236875928315           0.921838411763683  0.5563086448009966 1.0000   
         C         C         1.0       0.22255611664306277           0.9136247959635168 0.5813740000670048 1.0000   
         C         C         1.0       0.2302554704939199  0.8748674024407945  0.5951801195884509 1.0000   
         C         C         1.0       0.25407025092411795           0.8473156333290316 0.5853832981490172 1.0000   
         C         C         1.0       0.2710879481497156  0.858279775520833   0.562581146809165  1.0000   
         C         C         1.0       0.2611688415505577  0.8938793676074583  0.5463796423867546 1.0000   
         H         H         1.0       0.2726333808178904  0.6849768468980728  0.3978274866202145 1.0000   
         H         H         1.0       0.21601355988005344           0.7736650193869828 0.45232568478508794          1.0000   
         H         H         1.0       0.17143435073076432           0.7354655251054224 0.44198498683242865          1.0000   
         H         H         1.0       0.22261497379465975           0.6412048330798837 0.38798655659718734          1.0000   
         H         H         1.0       0.25260298440091905           0.8493449989739417 0.4339020925659502 1.0000   
         H         H         1.0       0.24139944958562165           0.9052363926885957 0.4009527651697029 1.0000   
         H         H         1.0       0.2641577614106103  0.808830955458859   0.33805228934786224          1.0000   
         H         H         1.0       0.2788407396124675  0.7550746995920112  0.37125648978366443          1.0000   
         H         H         1.0       0.256835118900419   0.7569846274776203  0.48302433481456947          1.0000   
         H         H         1.0       0.25000280807983155           0.8136665719820741 0.5154911509923116 1.0000   
         H         H         1.0       0.32444126737558    0.8889597607885518  0.4785103730028804 1.0000   
         H         H         1.0       0.3294187223860294  0.8330055640526405  0.4420279546453125 1.0000   
         H         H         1.0       0.1758271850436794  0.9161073555782058  0.4705271462271413 1.0000   
         H         H         1.0       0.2101184570526438  0.8902022869834509  0.5058373601131808 1.0000   
         H         H         1.0       0.29129602348119393           0.9589167009127857 0.473515355947756  1.0000   
         H         H         1.0       0.2554738372327619  0.9870651194513983  0.4341104154907188 1.0000   
         H         H         1.0       0.33813634369707624           0.878628681667893  0.5357940861090725 1.0000   
         H         H         1.0       0.3815724662547429  0.9255991538083893  0.5454008062299902 1.0000   
         H         H         1.0       0.3248754253203925  0.04072597025717105           0.5425924515331334 1.0000   
         H         H         1.0       0.27934811280631555           0.9937060405772552 0.5235937419452976 1.0000   
         H         H         1.0       0.2263349699910126  0.9504327819846072  0.5448893733556224 1.0000   
         H         H         1.0       0.2032113135515664  0.9368216064741094  0.5849419326058211 1.0000   
         H         H         1.0       0.26147577515852394           0.8166860575252336 0.5963972318500426 1.0000   
         H         H         1.0       0.2896962359328782  0.8382201266024009  0.5563599268377213 1.0000   
         C         C         1.0       0.25368296946406477           0.6948162108323829 0.21703402208636768          1.0000   
         C         C         1.0       0.23833759978397528           0.730859877312573  0.20593178783693714          1.0000   
         C         C         1.0       0.2456522263382286  0.7734403337085545  0.21518529663777564          1.0000   
         C         C         1.0       0.2708064368139307  0.7836252540558261  0.23315797125562956          1.0000   
         C         C         1.0       0.2903332085464771  0.7478166550282648  0.2408086159600941 1.0000   
         C         C         1.0       0.2812646262620336  0.7040853851037178  0.23390328255747192          1.0000   
         H         H         1.0       0.21727466225376058           0.7265255121424661 0.19241451930235373          1.0000   
         H         H         1.0       0.23025824491719626           0.8019976913232948 0.20905771824228472          1.0000   
         H         H         1.0       0.31030147008813624           0.7546388972576561 0.25414935447132575          1.0000   
         H         H         1.0       0.29506349027077    0.6771417135010777  0.24263651850813608          1.0000   
         C         C         1.0       0.30445899515715047           0.8186926662814479 0.2921920970550909 1.0000   
         C         C         1.0       0.3010426854408651  0.845363930585779   0.26891174452250427          1.0000   
         C         C         1.0       0.3116427964941001  0.8883385787229043  0.2706167838589136 1.0000   
         C         C         1.0       0.3242699944923228  0.9081667564875228  0.29437388262905223          1.0000   
         C         C         1.0       0.3261287751959927  0.8825837607234617  0.3172875654845824 1.0000   
         C         C         1.0       0.3201752366753366  0.8364631616883006  0.3147277910880007 1.0000   
         C         C         1.0       0.2741764026005118  0.83303607776061    0.24513037832393963          1.0000   
         C         C         1.0       0.24107417647556728           0.8475970907998375 0.2598682269524724 1.0000   
         C         C         1.0       0.23106138260678874           0.8915970226733207 0.2636095637952892 1.0000   
         C         C         1.0       0.21662940324847413           0.9059946480217543 0.2886135924713746 1.0000   
         C         C         1.0       0.20736633800260215           0.8737553712236055 0.30706957795509343          1.0000   
         C         C         1.0       0.20918834826335903           0.82903925492871   0.30062060813847086          1.0000   
         C         C         1.0       0.22524834584727205           0.8150614512011306 0.2766140307467782 1.0000   
         C         C         1.0       0.31950762272203875           0.8472189907349644 0.21031779639234435          1.0000   
         C         C         1.0       0.3342304172281385  0.8724840133630192  0.19141700205525664          1.0000   
         C         C         1.0       0.3168665515388062  0.9053185464071861  0.17790292906753746          1.0000   
         C         C         1.0       0.285093470169191   0.9099901371586339  0.18193613322409535          1.0000   
         C         C         1.0       0.26959289805084385           0.8840459877602022 0.201403082349135  1.0000   
         C         C         1.0       0.28722681387327315           0.8542995828993708 0.21701762965852084          1.0000   
         C         C         1.0       0.33861020828791777           0.935741583053582  0.15686358707332443          1.0000   
         C         C         1.0       0.3855239031320065  0.9998619274502608  0.22857986977126782          1.0000   
         C         C         1.0       0.4035783605534186  0.9809093088843794  0.20842304622845262          1.0000   
         C         C         1.0       0.3896962927832094  0.9628320619042686  0.1850518165346266 1.0000   
         C         C         1.0       0.3569535961420482  0.964757971009828   0.18002903814558527          1.0000   
         C         C         1.0       0.34045729287790183           0.9878277112474876 0.20064388419166407          1.0000   
         C         C         1.0       0.35384359878099814           0.004105246827407427         0.22424762894681297          1.0000   
         C         C         1.0       0.32184716277471104           0.9645209092711443 0.13481898723534813          1.0000   
         C         C         1.0       0.291945288805712   0.9558687868752171  0.12350336165435495          1.0000   
         C         C         1.0       0.2767610086047711  0.9870047241890573  0.10795263664123432          1.0000   
         C         C         1.0       0.29162633187128645           0.02751276231868993          0.10228857199854932          1.0000   
         C         C         1.0       0.323051344236383   0.03455453195185253           0.11064971664884592          1.0000   
         C         C         1.0       0.33800300799538024           0.002057258543349816         0.12644754953418624          1.0000   
         C         C         1.0       0.39192541984143836           0.9164316641504112 0.12509498836241614          1.0000   
         C         C         1.0       0.413497068926206   0.8846302241393035  0.11408086692797552          1.0000   
         C         C         1.0       0.40566341874887807           0.841225129508379  0.1124945042009508 1.0000   
         C         C         1.0       0.37587935787449406           0.8292538086530302 0.12273981664723733          1.0000   
         C         C         1.0       0.3540291781221071  0.8614407240872982  0.13252002273902785          1.0000   
         C         C         1.0       0.36203475039746424           0.9054098543350354 0.13663347356790226          1.0000   
         H         H         1.0       0.29630954078086813           0.7848487484715635 0.2940161771125959 1.0000   
         H         H         1.0       0.311835540863578   0.9089485918863209  0.2534701517410389 1.0000   
         H         H         1.0       0.3258329831128518  0.9465702548360364  0.2956686535773284 1.0000   
         H         H         1.0       0.32392452684456813           0.8195702378013849 0.3333810091261241 1.0000   
         H         H         1.0       0.24262440061821122           0.9141201816846181 0.25085454682597685          1.0000   
         H         H         1.0       0.2149264373024768  0.9434856890597094  0.29187795940138095          1.0000   
         H         H         1.0       0.2027795112788704  0.8045718212927975  0.31834567719831774          1.0000   
         H         H         1.0       0.23079039695378514           0.7784644692359473 0.2740374039011593 1.0000   
         H         H         1.0       0.33295383631166603           0.8223905351484811 0.2223628865730737 1.0000   
         H         H         1.0       0.36069938644400257           0.8682911312332854 0.18847594575722582          1.0000   
         H         H         1.0       0.26517458319686316           0.9298218555083806 0.17087307025572943          1.0000   
         H         H         1.0       0.2442271020232089  0.890779116033593   0.2034057252911129 1.0000   
         H         H         1.0       0.42868188578964245           0.9716151118682278 0.21172505413804127          1.0000   
         H         H         1.0       0.4063901977473418  0.947119921289794   0.17230883127995728          1.0000   
         H         H         1.0       0.31582271773948556           0.9940611456052281 0.1975062098941332 1.0000   
         H         H         1.0       0.3356950830092269  0.019620261694414998         0.23918852951996944          1.0000   
         H         H         1.0       0.2794183442048481  0.9245782866928802  0.12648584125957466          1.0000   
         H         H         1.0       0.2542777252415464  0.9782227959813848  0.09613122751309117          1.0000   
         H         H         1.0       0.33904482983999884           0.06283093604416908          0.10247832546432926          1.0000   
         H         H         1.0       0.3625062011046413  0.008644945110813262         0.13175883079948694          1.0000   
         H         H         1.0       0.4013199081979758  0.9511016043702613  0.12512924909602396          1.0000   
         H         H         1.0       0.4355779716601802  0.8991930232286867  0.10683930965147291          1.0000   
         H         H         1.0       0.3683699986286086  0.7954790188361746  0.12051706671423426          1.0000   
         H         H         1.0       0.3316995936110613  0.8482150885820556  0.139086343064411  1.0000   
         C         C         1.0       0.15361307068578176           0.9092746212079329 0.4163859274721594 1.0000   
         C         C         1.0       0.16016224904321474           0.8647535204325796 0.41918908275385247          1.0000   
         C         C         1.0       0.13690605725374522           0.8366642183437432 0.42890537956120967          1.0000   
         C         C         1.0       0.10787818633665373           0.8534137665014633 0.44161005952623006          1.0000   
         C         C         1.0       0.10123452103333937           0.897177764427286  0.43505171646497776          1.0000   
         C         C         1.0       0.12328936904717222           0.9260220568756319 0.422920700087303  1.0000   
         H         H         1.0       0.18315313204881728           0.8526380494261916 0.4110751147507583 1.0000   
         H         H         1.0       0.1441927544298432  0.8015377690395401  0.4299215477173225 1.0000   
         H         H         1.0       0.07908621726223608           0.9116965927910311 0.44462653476796715          1.0000   
         H         H         1.0       0.11890847070911512           0.9607237813774445 0.42030404640447677          1.0000   
         C         C         1.0       0.10199483724794155           0.8780832875588893 0.5014287304734901 1.0000   
         C         C         1.0       0.07680459622965558           0.8555060968165926 0.487711832750376  1.0000   
         C         C         1.0       0.04642158256168139           0.8540295304225018 0.5016629604701902 1.0000   
         C         C         1.0       0.04353200608240644           0.8720988405009517 0.5278733696256291 1.0000   
         C         C         1.0       0.06743252834897454           0.8995591948567156 0.5397663133634047 1.0000   
         C         C         1.0       0.09623858135438405           0.901059343073816  0.5253637669679853 1.0000   
         C         C         1.0       0.08333136197886579           0.8265319662226752 0.45955465589767636          1.0000   
         C         C         1.0       0.09397076714745363           0.7792623569408452 0.47211532694437225          1.0000   
         C         C         1.0       0.07068849679761871           0.7456716055686005 0.47551963204681574          1.0000   
         C         C         1.0       0.08090523003700716           0.7031318467152262 0.4838894150173143 1.0000   
         C         C         1.0       0.11195425024841377           0.6937163031523861 0.49202163860270415          1.0000   
         C         C         1.0       0.13473213500420808           0.7260665002562061 0.4882193471749119 1.0000   
         C         C         1.0       0.12533475500327296           0.7679541843359443 0.47919463291920594          1.0000   
         C         C         1.0       0.027469823904660826          0.8476697936934633 0.4383808162274933 1.0000   
         C         C         1.0       0.4897607563182349  0.8481886150235409  0.3999635087261154 1.0000   
         C         C         1.0       0.4919117244814719  0.8155095981378947  0.3794908381380405 1.0000   
         C         C         1.0       0.027889440972314414          0.7775325610707543 0.4020294540534907 1.0000   
         C         C         1.0       0.054362467827332346          0.7856024841822834 0.41871892260036303          1.0000   
         C         C         1.0       0.05356110937492931           0.8185777471389021 0.4393518833188604 1.0000   
         C         C         1.0       0.45851769345298526           0.7888848383947193 0.36979349358986197          1.0000   
         C         C         1.0       0.4432682581512505  0.6850059053658402  0.4302550970246286 1.0000   
         C         C         1.0       0.43779900394536564           0.728795072789485  0.4379998079969043 1.0000   
         C         C         1.0       0.44424308028439835           0.7619407688885729 0.42146061139481317          1.0000   
         C         C         1.0       0.4546824419971176  0.753667106366825   0.39452644696248335          1.0000   
         C         C         1.0       0.4666745816083963  0.7119526353373052  0.38946106283267706          1.0000   
         C         C         1.0       0.4596231719600342  0.6766707791586188  0.40579669742591257          1.0000   
         C         C         1.0       0.45643191360991764           0.764778623804223  0.33995680932881805          1.0000   
         C         C         1.0       0.474967706559856   0.7710842386928214  0.3168347281724205 1.0000   
         C         C         1.0       0.4690214406947072  0.7493253789010041  0.29179084161661134          1.0000   
         C         C         1.0       0.4451470918531497  0.7193950138342902  0.2894659312648962 1.0000   
         C         C         1.0       0.4243136857982374  0.7152844026856784  0.3110269942860239 1.0000   
         C         C         1.0       0.4310179486994656  0.7372107566232713  0.33558062530394217          1.0000   
         C         C         1.0       0.40330482011030133           0.8240752484877104 0.37709208576497416          1.0000   
         C         C         1.0       0.38078318734449873           0.8578549145834773 0.3730446028555692 1.0000   
         C         C         1.0       0.3860472528444576  0.8909907290359048  0.3560078325171173 1.0000   
         C         C         1.0       0.4157070765404317  0.8920983415361717  0.34160437403988075          1.0000   
         C         C         1.0       0.4381768714147896  0.8605469088466289  0.347815862327886  1.0000   
         C         C         1.0       0.4324491760248198  0.8250855019615491  0.3650434798473118 1.0000   
         H         H         1.0       0.12722516411687243           0.8790069286181766 0.4945973243623099 1.0000   
         H         H         1.0       0.026959822197859168          0.8391868719394423 0.49271549750055577          1.0000   
         H         H         1.0       0.021390324759420338          0.867228667330671  0.5388768487025981 1.0000   
         H         H         1.0       0.11819387450275692           0.9186370000555864 0.5323143628332376 1.0000   
         H         H         1.0       0.0455977740312072  0.7499996953218642  0.47217575002814316          1.0000   
         H         H         1.0       0.06397560294217237           0.6762326329793622 0.4860520422783084 1.0000   
         H         H         1.0       0.16119034222338238           0.7205117307753315 0.4930215392423675 1.0000   
         H         H         1.0       0.14386564080635134           0.7938738329919295 0.4758707743588453 1.0000   
         H         H         1.0       0.027964939655570075          0.8811597725327973 0.4492202059730589 1.0000   
         H         H         1.0       0.4682251634896964  0.8625583876924439  0.40636175563928245          1.0000   
         H         H         1.0       0.028439362722489953          0.7472613326888395 0.38887329339347726          1.0000   
         H         H         1.0       0.0743664477733774  0.763178202193537   0.4158210127176399 1.0000   
         H         H         1.0       0.42714333758232365           0.7357750752931965 0.45684782148200925          1.0000   
         H         H         1.0       0.4364202431311235  0.7955490525136653  0.4264418862367191 1.0000   
         H         H         1.0       0.4797846884627814  0.7058104568593688  0.370587024509224  1.0000   
         H         H         1.0       0.4641161882480175  0.642138260895426   0.3994342451063341 1.0000   
         H         H         1.0       0.009622241844138901          0.7893016579215936 0.3474368994010694 1.0000   
         H         H         1.0       0.48271453273230236           0.7498186857211352 0.2728753001561973 1.0000   
         H         H         1.0       0.40297987891619697           0.6955471144690091 0.31082770155857387          1.0000   
         H         H         1.0       0.41547718160655567           0.7292416005304664 0.35161480719160626          1.0000   
         H         H         1.0       0.39613811548273087           0.795735522707699  0.38925562930651   1.0000   
         H         H         1.0       0.3600441006900468  0.8511554081532103  0.3823575959841929 1.0000   
         H         H         1.0       0.416976665566515   0.918807424145717   0.3268350978316867 1.0000   
         H         H         1.0       0.45976770783775456           0.8666845273141238 0.33577717911997496          1.0000   
         C         C         1.0       0.4273613121606019  0.9303760881442589  0.26384653285417264          1.0000   
         C         C         1.0       0.41974882445016354           0.8962063843686816 0.24577436378822462          1.0000   
         C         C         1.0       0.4446357682024486  0.8754720665560222  0.23170051330766175          1.0000   
         C         C         1.0       0.04202729300497524           0.920014460654831  0.23266180681661194          1.0000   
         C         C         1.0       0.0408774613530873  0.9408693408269012  0.2584526166593716 1.0000   
         C         C         1.0       0.4594343120157332  0.945198329412554   0.26669037727357714          1.0000   
         H         H         1.0       0.3943813998481421  0.8888509062144387  0.24094847094134283          1.0000   
         H         H         1.0       0.43703468064340795           0.8508582534537006 0.21633028581972397          1.0000   
         H         H         1.0       0.05973688367003255           0.931240084695919  0.27229944883156926          1.0000   
         H         H         1.0       0.4683255166358609  0.9741064207066071  0.2778373381017943 1.0000   
         C         C         1.0       0.09820139039872455           0.9433281417148918 0.18910111841586538          1.0000   
         C         C         1.0       0.09741480444290193           0.9286989003425903 0.21557746473032016          1.0000   
         C         C         1.0       0.11814712560843198           0.9523714153462279 0.2345306579249969 1.0000   
         C         C         1.0       0.14026143825917203           0.9829428738082565 0.22471209919183507          1.0000   
         C         C         1.0       0.1417156590843559  0.9910406310124414  0.19745083373905034          1.0000   
         C         C         1.0       0.11882746504902619           0.9728043940871866 0.18021732230387122          1.0000   
         C         C         1.0       0.07375786382702045           0.8881929150322816 0.2247885476486085 1.0000   
         C         C         1.0       0.06425333995316289           0.8475413592648341 0.20268466591195508          1.0000   
         C         C         1.0       0.08660337149813997           0.8307050188123486 0.1846616015475816 1.0000   
         C         C         1.0       0.07843993315844512           0.7923582930435316 0.16935939638741568          1.0000   
         C         C         1.0       0.052083949024346855          0.7658051833543931 0.1762856950922249 1.0000   
         C         C         1.0       0.029679088375176767          0.7824068167867325 0.19520846641754155          1.0000   
         C         C         1.0       0.03568244514841156           0.8237475942550313 0.2081000057182836 1.0000   
         C         C         1.0       0.12151170527739057           0.8462104032122639 0.24762626863976275          1.0000   
         C         C         1.0       0.13093834719517802           0.8081616475487317 0.2600566319982104 1.0000   
         C         C         1.0       0.10868412655630119           0.782192551894764  0.27457478824835047          1.0000   
         C         C         1.0       0.07945675584908465           0.8011629751007838 0.2818985555626505 1.0000   
         C         C         1.0       0.06917031326364803           0.8374442118637728 0.2673819436310874 1.0000   
         C         C         1.0       0.08962577135939741           0.8575780314718784 0.2479912660430986 1.0000   
         C         C         1.0       0.11531594665877205           0.730518043072898  0.2817325647439839 1.0000   
         C         C         1.0       0.17984002450517886           0.6586220644159826 0.22497396004173992          1.0000   
         C         C         1.0       0.17952068542702443           0.6465453699714178 0.25116154945123387          1.0000   
         C         C         1.0       0.15824470266526813           0.6690160019355141 0.2683058590330738 1.0000   
         C         C         1.0       0.13836837432758578           0.7033999499211067 0.2602436352390602 1.0000   
         C         C         1.0       0.1382591076993755  0.7112953652819549  0.2328633025331151 1.0000   
         C         C         1.0       0.1587862714282867  0.6911857363145903  0.21536127548587214          1.0000   
         C         C         1.0       0.08395807084235621           0.6998543020148423 0.2738991450114859 1.0000   
         C         C         1.0       0.061779067749706124          0.7118439001701996 0.2536853140525221 1.0000   
         C         C         1.0       0.030879937784682183          0.6942917070463379 0.25293394709448647          1.0000   
         C         C         1.0       0.02278297629092985           0.6631580425868049 0.27206959358172966          1.0000   
         C         C         1.0       0.04582260239774503           0.6459255541965251 0.288040947473924  1.0000   
         C         C         1.0       0.07539212565317162           0.6641651160507293 0.288951042625245  1.0000   
         C         C         1.0       0.0987948124685052  0.7362109615512437  0.3326885046710251 1.0000   
         C         C         1.0       0.1040258936879845  0.7271594185309204  0.3601241957145782 1.0000   
         C         C         1.0       0.13437354890553013           0.7154973457689258 0.36919808578238056          1.0000   
         C         C         1.0       0.16048186489529825           0.7184043968913341 0.3517965759475078 1.0000   
         C         C         1.0       0.1556825707789186  0.7251776671090464  0.32382988000289264          1.0000   
         C         C         1.0       0.12360903418103966           0.7293870739915213 0.3141194818421558 1.0000   
         H         H         1.0       0.08096867328098319           0.929749155989685  0.173906442336836  1.0000   
         H         H         1.0       0.119379782779721   0.9439652969858383  0.25616287035560714          1.0000   
         H         H         1.0       0.16122850083526183           0.9910753624377036 0.2382260925554462 1.0000   
         H         H         1.0       0.11975301463436702           0.9764426391928098 0.15817419205511252          1.0000   
         H         H         1.0       0.11067200082971818           0.8454284122484396 0.18415991563003756          1.0000   
         H         H         1.0       0.09783595178950728           0.7808139883646434 0.15598779940173735          1.0000   
         H         H         1.0       0.007878469466007877          0.7662745814098667 0.19957629751737954          1.0000   
         H         H         1.0       0.018888273119271454          0.8360334009857635 0.22383606556949337          1.0000   
         H         H         1.0       0.13833929633174313           0.8633478992460969 0.2343586938795283 1.0000   
         H         H         1.0       0.1560500378261238  0.7959227445800958  0.2578864788730606 1.0000   
         H         H         1.0       0.06068207500618894           0.7876037739180431 0.2940075407585628 1.0000   
         H         H         1.0       0.04305679879724501           0.8478023621474478 0.2679319148737071 1.0000   
         H         H         1.0       0.19674001154723653           0.6229793653072754 0.25929082722478375          1.0000   
         H         H         1.0       0.157938235323158   0.659545777814112   0.2892757015484504 1.0000   
         H         H         1.0       0.12182634686409478           0.7366074772238776 0.22381883388984994          1.0000   
         H         H         1.0       0.16111554372286338           0.6981881976952055 0.19369155294376314          1.0000   
         H         H         1.0       0.06795121761218466           0.7338422339795978 0.23802179723270586          1.0000   
         H         H         1.0       0.49086232011074993           0.6839406758804001 0.21406674466100017          1.0000   
         H         H         1.0       0.040098906553719   0.6215672370647612  0.3026173617146672 1.0000   
         H         H         1.0       0.09019000829426757           0.6529929910634675 0.3046062221491477 1.0000   
         H         H         1.0       0.07505396093334864           0.7451960922993898 0.32656621648122847          1.0000   
         H         H         1.0       0.08133057410521898           0.7287832947339293 0.37290258020868516          1.0000   
         H         H         1.0       0.1827574122096827  0.7186437628127325  0.362792417350077  1.0000   
         H         H         1.0       0.17549679195402806           0.723295758279578  0.30833942692933086          1.0000   
         C         C         1.0       0.4373513594405107  0.6931402645869822  0.2630018875638152 1.0000   
         C         C         1.0       0.4579758708572346  0.6505254756886294  0.25755570030018676          1.0000   
         H         H         1.0       0.4106228862523747  0.6850158284789292  0.2626898778411208 1.0000   
         H         H         1.0       0.44012707543251295           0.7154430998853718 0.24424416288328554          1.0000   
         H         H         1.0       0.4489548972673339  0.6302583462761778  0.24040563435449763          1.0000   
         H         H         1.0       0.4552034497686716  0.6311162054948272  0.27565824994992827          1.0000   
         C         C         1.0       0.2436108560705672  0.6459545835978345  0.21458667006803012          1.0000   
         C         C         1.0       0.20752390574460958           0.6387432775563223 0.2060172446426183 1.0000   
         H         H         1.0       0.25878190083005503           0.6311680079678169 0.19955405887749067          1.0000   
         H         H         1.0       0.24926104964705562           0.6285706939749865 0.23313648224211447          1.0000   
         H         H         1.0       0.20424918960163194           0.6018134691116457 0.20402356409284036          1.0000   
         H         H         1.0       0.20564509117431726           0.6514186107649353 0.18464207931553586          1.0000   
         C         C         1.0       0.4017725474562134  0.9644584843478858  0.2728140892157043 1.0000   
         C         C         1.0       0.4007231269425981  0.008964167148580282         0.255312007810382  1.0000   
         H         H         1.0       0.4087562415612228  0.9754939437540425  0.29378225745197045          1.0000   
         H         H         1.0       0.3778281042950348  0.95052516360501    0.2777019673149299 1.0000   
         H         H         1.0       0.4273554658888589  0.01995367077661503           0.2534289640479757 1.0000   
         H         H         1.0       0.3870777517586529  0.035784913080188975         0.2668345534413886 1.0000   
         C         C         1.0       0.32725110302060567           0.9080196725099773 0.3438355469481729 1.0000   
         C         C         1.0       0.35970920956874464           0.9251696987761864 0.35298609601743697          1.0000   
         H         H         1.0       0.31021141231546595           0.9387640075855774 0.3461199076461895 1.0000   
         H         H         1.0       0.31938247723113355           0.8880321790982731 0.36099472010953076          1.0000   
         H         H         1.0       0.36644435218206556           0.953313261812842  0.34061726462464853          1.0000   
         H         H         1.0       0.35439314525419335           0.9390566655581524 0.37441162155670304          1.0000   
         C         C         1.0       0.16310393616787272           0.6653837393752435 0.4045679539187768 1.0000   
         C         C         1.0       0.13541339633830562           0.6972350793848566 0.3983424312336361 1.0000   
         H         H         1.0       0.16848293529495864           0.6430895098637076 0.38721650535239155          1.0000   
         H         H         1.0       0.15486825836568296           0.6445718663348796 0.4216425507226546 1.0000   
         H         H         1.0       0.13191025499757555           0.7260188547862604 0.41263314018614944          1.0000   
         H         H         1.0       0.11242269044784806           0.680582770389879  0.40159698216812467          1.0000   
         C         C         1.0       0.1777155756732448  0.942905687280885   0.4072931514845285 1.0000   
         C         C         1.0       0.1928453055785236  0.9749808670801013  0.42910542279844693          1.0000   
         H         H         1.0       0.19544021174283033           0.9245325969935381 0.39527467550116285          1.0000   
         H         H         1.0       0.1650266945928808  0.9649167993332899  0.3935859563343928 1.0000   
         H         H         1.0       0.17378814717828098           0.9933289644046333 0.44140981581486866          1.0000   
         H         H         1.0       0.2044658229543377  0.0021886879676620286        0.4186680655436327 1.0000   
         C         C         1.0       0.3935357172162264  0.6393267808531071  0.42518224645166414          1.0000   
         C         C         1.0       0.42314558890067994           0.6482353663130778 0.44409439044952964          1.0000   
         H         H         1.0       0.38251675723062306           0.6049334227106701 0.43041663070775027          1.0000   
         H         H         1.0       0.40102029863174693           0.6342716995056223 0.4050656528589621 1.0000   
         H         H         1.0       0.4374253425239904  0.6175447877751231  0.45001684237135864          1.0000   
         H         H         1.0       0.4099426282512881  0.6579561098086429  0.46404786279210414          1.0000   
         C         C         1.0       0.23839738693471635           0.8954183222016364 0.3481831424378662 1.0000   
         C         C         1.0       0.2035979144338473  0.8901794803592787  0.33673608481968464          1.0000   
         H         H         1.0       0.2534475009272354  0.8998407223546143  0.3300653271993846 1.0000   
         H         H         1.0       0.23971313097472316           0.9294724712451887 0.35444152593970957          1.0000   
         H         H         1.0       0.18981113337138394           0.9233015937111257 0.33846610188728915          1.0000   
         H         H         1.0       0.1896458280021993  0.869535502740108   0.34981436361565293          1.0000   
         C         C         1.0       0.4057763541490673  0.041085390737778706         0.525161096315624  1.0000   
         C         C         1.0       0.387961903331327   0.018568195964554283         0.5490108701576625 1.0000   
         H         H         1.0       0.3972266103436961  0.021671255238572943         0.506489299531813  1.0000   
         H         H         1.0       0.43285165467607606           0.03508961705599392          0.523500781878458  1.0000   
         H         H         1.0       0.3822345700744525  0.04196645434787147           0.5652836498049385 1.0000   
         H         H         1.0       0.4035100210750227  0.9997680433879883  0.5621085805520852 1.0000   
         C         C         1.0       0.2783895571995274  0.0549992676570968  0.07932294953464579          1.0000   
         C         C         1.0       0.2870541541252659  0.1035507764899542  0.07787725371697586          1.0000   
         H         H         1.0       0.2524735067650664  0.04866077128852946           0.0781237924871574 1.0000   
         H         H         1.0       0.28992131432736296           0.039032037593562025         0.06072452871373053          1.0000   
         H         H         1.0       0.28209868717689013           0.11397666650300792          0.05610510928909608          1.0000   
         H         H         1.0       0.3137815075257449  0.10513240380995742           0.07936420578462143          1.0000   
         C         C         1.0       0.24186028940488913           0.1706456059067941 0.36933669962802385          1.0000   
         C         C         1.0       0.24038995978756825           0.15472795291082522          0.33919716240414255          1.0000   
         H         H         1.0       0.25450751629262935           0.138992252788985  0.3784052415376578 1.0000   
         H         H         1.0       0.21865968220277315           0.17457691248121202          0.3809986237884965 1.0000   
         H         H         1.0       0.21724092736467301           0.13448468424937393          0.3343372915387571 1.0000   
         H         H         1.0       0.2608999592902183  0.13174043684944323           0.33406414787833016          1.0000   
         C         C         1.0       0.050533575903701146          0.7163660017257785 0.165730189807129  1.0000   
         C         C         1.0       0.08013538277764908           0.6866211286534839 0.17009584190285562          1.0000   
         H         H         1.0       0.02971498462475182           0.6988410563556796 0.17620152395618266          1.0000   
         H         H         1.0       0.046686388994278565          0.718053197719453  0.14434746787958797          1.0000   
         H         H         1.0       0.0968831990734112  0.6997584914612371  0.18682830521908483          1.0000   
         H         H         1.0       0.09721245821717284           0.6924065116439716 0.15364214018159944          1.0000   
         C         C         1.0       0.48937823136707775           0.30461647182859675          0.34544875986464063          1.0000   
         C         C         1.0       0.45866738183881367           0.2766078862572874 0.343960020267391  1.0000   
         H         H         1.0       0.5008841727737043  0.3046786999597271  0.3662807967823062 1.0000   
         H         H         1.0       0.5063443644175101  0.28541884230214903           0.3318659368780039 1.0000   
         H         H         1.0       0.4622555088939272  0.24184756600221743           0.3524301602031372 1.0000   
         H         H         1.0       0.45512716702282635           0.2688461669885878 0.3221451152485994 1.0000   
         C         C         1.0       0.3446992883047361  0.41340936466264716           0.3184946525227561 1.0000   
         C         C         1.0       0.34481929619051954           0.4629569985010029 0.3071276679136455 1.0000   
         H         H         1.0       0.34157473369200325           0.41318654786968806          0.3413624452920946 1.0000   
         H         H         1.0       0.36926608387815124           0.3956977559353127 0.31630488778860655          1.0000   
         H         H         1.0       0.3275121489980793  0.4868390842214385  0.31853835129071095          1.0000   
         H         H         1.0       0.33484581789631357           0.46140380553610083          0.28551629866217726          1.0000   
         C         C         1.0       0.15816786051238618           0.4124660789787956 0.1616179427280023 1.0000   
         C         C         1.0       0.15990610730015936           0.3932191072547312 0.1305402224420815 1.0000   
         H         H         1.0       0.17904328701507471           0.437287045856489  0.16623201639762644          1.0000   
         H         H         1.0       0.16049558677623874           0.3842182888480015 0.17558627329577295          1.0000   
         H         H         1.0       0.15929162775709482           0.42189127850261243          0.11669716001162052          1.0000   
         H         H         1.0       0.13868490493765956           0.3703857160075042 0.1259476962726519 1.0000   
         C         C         1.0       0.1268662662312342  0.6161874122865506  0.4749857887154712 1.0000   
         C         C         1.0       0.12031675955524966           0.6468112112047675 0.4999057379081416 1.0000   
         H         H         1.0       0.15216067115842272           0.6198858384161496 0.4649753763870639 1.0000   
         H         H         1.0       0.11266070100791752           0.6263250001951185 0.4572752768170689 1.0000   
         H         H         1.0       0.1430190879224543  0.6501391301270338  0.5125884743882843 1.0000   
         H         H         1.0       0.09818990747753543           0.6359226136071997 0.511849048738219  1.0000   
         C         C         1.0       0.055116678618765506          0.6299943774571279 0.3724766869338613 1.0000   
         C         C         1.0       0.024577938780293487          0.6052482554629101 0.3840637592262606 1.0000   
         H         H         1.0       0.05686776129255907           0.6593480710349123 0.3853597321543351 1.0000   
         H         H         1.0       0.050587973487559626          0.6438763564639898 0.3519915118467429 1.0000   
         H         H         1.0       0.00731753659506428           0.6315677053590105 0.38990676562864696          1.0000   
         H         H         1.0       0.028668557973756625          0.5876226782883304 0.40380280482517544          1.0000   
         C         C         1.0       0.11036497557179288           0.3654890455570413 0.2610148317186552 1.0000   
         C         C         1.0       0.10034918051604552           0.3577214221801877 0.2920072087271108 1.0000   
         H         H         1.0       0.09420885629437115           0.344803946716477  0.24708205345743056          1.0000   
         H         H         1.0       0.10563457428986214           0.40009237011516685          0.25568366687834787          1.0000   
         H         H         1.0       0.10573019203888372           0.32498575437392857          0.29706906694806257          1.0000   
         H         H         1.0       0.07271829199514085           0.3586236281615956 0.29251605979615275          1.0000   
         C         C         1.0       0.0068436036599767314         0.3234413117867458 0.5194492031330662 1.0000   
         C         C         1.0       0.476206200344668   0.3644458490204225  0.5061081008216095 1.0000   
         H         H         1.0       0.9966646096447799  0.33120191937959303           0.5401540642859595 1.0000   
         H         H         1.0       0.012394444763561892          0.28695691643986243          0.5200526842489962 1.0000   
         H         H         1.0       0.4805750136570798  0.3656889207762192  0.484441547542816  1.0000   
         H         H         1.0       0.4704945367092226  0.4016813876196391  0.51164981912833   1.0000   
         C         C         1.0       0.3026513901780546  0.4990437848736606  0.4053053312082186 1.0000   
         C         C         1.0       0.2876865701611238  0.5221043904124837  0.38073865710407784          1.0000   
         H         H         1.0       0.2896233034008326  0.5110243832472187  0.42371972486841253          1.0000   
         H         H         1.0       0.3273136997585917  0.5131161046947498  0.4071280098546041 1.0000   
         H         H         1.0       0.29309007633262063           0.5579753547639487 0.3828317955814124 1.0000   
         H         H         1.0       0.2993742439562289  0.5096247585688165  0.36231493571555495          1.0000   
         C         C         1.0       0.09478581620824604           0.9030509294598412 0.5895677970365233 1.0000   
         C         C         1.0       0.06830926873667975           0.9211389748223477 0.5696685914331934 1.0000   
         H         H         1.0       0.10223815361814259           0.9343586376704159 0.600743054318659  1.0000   
         H         H         1.0       0.11655178408144981           0.8921005746264694 0.5773415543094335 1.0000   
         H         H         1.0       0.07343631900960841           0.9555218381235926 0.5689524652254178 1.0000   
         H         H         1.0       0.043415917709683234          0.9231457870235208 0.578645407995868  1.0000   
         C         C         1.0       0.17306106217736741           0.011610866033896052         0.1854722989754461 1.0000   
         C         C         1.0       0.1976812952396239  0.9759539176699035  0.17501182423336314          1.0000   
         H         H         1.0       0.1695814534729696  0.032748947013130324         0.16811251575366692          1.0000   
         H         H         1.0       0.18429727704822899           0.032774155776718314         0.19961847553358986          1.0000   
         H         H         1.0       0.20646541259153436           0.9548349442547962 0.19185412991689818          1.0000   
         H         H         1.0       0.21860644785343383           0.9927972555294661 0.1666053123154969 1.0000   
         C         C         1.0       0.15812671965958652           0.7434190094056641 0.8880765117891257 1.0000   
         C         C         1.0       0.16228361165136596           0.755329264119706  0.8587971614070068 1.0000   
         H         H         1.0       0.17444444921138327           0.7120576135709765 0.890124401959297  1.0000   
         H         H         1.0       0.1317707154891817  0.7321275769675376  0.8888542033418114 1.0000   
         H         H         1.0       0.16923906276559345           0.7236790334961626 0.8483461461764921 1.0000   
         H         H         1.0       0.18581740015776788           0.7764890134150805 0.8582647081222684 1.0000   
         C         C         1.0       0.42773410559820435           0.8045514520314677 0.09920611646667996          1.0000   
         C         C         1.0       0.4636322415635594  0.8117789365693587  0.09243977333855165          1.0000   
         H         H         1.0       0.43257517222826136           0.7804873205949242 0.11548549919959601          1.0000   
         H         H         1.0       0.4166703962662338  0.7859325533170763  0.08258848103462914          1.0000   
         H         H         1.0       0.47789959642501373           0.7799731920566971 0.08915831375498601          1.0000   
         H         H         1.0       0.47523207958270397           0.8217849974167681 0.11207119815602863          1.0000   
         C         C         1.0       0.45859034517610114           0.8459179284412777 0.8284882936325769 1.0000   
         C         C         1.0       0.46170991586593063           0.850880573932503  0.7981643983885451 1.0000   
         H         H         1.0       0.43488038904348814           0.828903546944494  0.8330486840592545 1.0000   
         H         H         1.0       0.47513671600530655           0.8207439100563867 0.8360013679719078 1.0000   
         H         H         1.0       0.4457897885377841  0.8777649601054159  0.7912323921760207 1.0000   
         H         H         1.0       0.45313120808189855           0.8205318583167606 0.7891557263612784 1.0000   
         C         C         1.0       0.31751533333161064           0.889066585690271  0.0514196484546506 1.0000   
         C         C         1.0       0.3147836099810916  0.8359217402370517  0.05470182662088404          1.0000   
         H         H         1.0       0.31454717995716186           0.9072118861078355 0.0711215463766889 1.0000   
         H         H         1.0       0.29878781381322655           0.9017821937053334 0.03720803569258878          1.0000   
         H         H         1.0       0.3360205395687688  0.8228142955599881  0.06478962984447907          1.0000   
         H         H         1.0       0.3130830418677683  0.8251813001753558  0.03391241956159614          1.0000   
         C         C         1.0       0.10983334750938245           0.04750757172016494          0.9411719911014598 1.0000   
         C         C         1.0       0.0765521499308077  0.055975990041474126         0.9554025650925689 1.0000   
         H         H         1.0       0.12670854452023006           0.07570793356854938          0.9452869458368052 1.0000   
         H         H         1.0       0.10447184799832468           0.05085966075311505          0.9188713313220477 1.0000   
         H         H         1.0       0.0697934785228953  0.09213505887830101           0.955907033892994  1.0000   
         H         H         1.0       0.08063675012435441           0.048154981062819624         0.9772637187409972 1.0000   
         C         C         1.0       0.22785972218743214           0.8459692667985242 0.6457417174029179 1.0000   
         C         C         1.0       0.2098015076025905  0.8624505244650803  0.6202809046991669 1.0000   
         H         H         1.0       0.24586746316342337           0.8210206921644096 0.6409235183453994 1.0000   
         H         H         1.0       0.2110482599395317  0.8234059879231983  0.6548703315250382 1.0000   
         H         H         1.0       0.19221848357207733           0.889598893454845  0.6265830672727581 1.0000   
         H         H         1.0       0.19370531407457986           0.8349525822791388 0.613286707550673  1.0000   
         C         C         1.0       0.3036505843018856  0.8089602479418445  0.9125294090365484 1.0000   
         C         C         1.0       0.3160130121812373  0.84342955101782    0.9336927020369301 1.0000   
         H         H         1.0       0.2884001858961486  0.7819216726362559  0.9223394335190868 1.0000   
         H         H         1.0       0.3247004499251707  0.788275931185661   0.9035521506366462 1.0000   
         H         H         1.0       0.3298645158524524  0.8232636728763568  0.9470096231452445 1.0000   
         H         H         1.0       0.33552187052881066           0.8665121374960486 0.9251013471933707 1.0000   
         C         C         1.0       0.11587284931748616           0.013405790002412044         0.8545394142236841 1.0000   
         C         C         1.0       0.09556470485516205           0.020395533406060824         0.8288034383449455 1.0000   
         H         H         1.0       0.1171844205206698  0.04635891797326911           0.8657136652306847 1.0000   
         H         H         1.0       0.10328162523931783           0.9946307648463091 0.8698545115730945 1.0000   
         H         H         1.0       0.10972649679743657           0.037655870486142204         0.8127812658654289 1.0000   
         H         H         1.0       0.07225180874602577           0.03931887952671102          0.8308225092104555 1.0000   
         C         C         1.0       0.41912720927072117           0.9023545885363866 0.7331942611067889 1.0000   
         C         C         1.0       0.42470932440068704           0.8537415298771942 0.7245817087452853 1.0000   
         H         H         1.0       0.4310097964516707  0.9130255668455217  0.7534005906979108 1.0000   
         H         H         1.0       0.43333186693443715           0.9228855313105923 0.7206368976704299 1.0000   
         H         H         1.0       0.4066051968018192  0.8417760798197247  0.7092325175280167 1.0000   
         H         H         1.0       0.4170631547042495  0.8307178329431487  0.7406078749847832 1.0000   
         C         C         1.0       0.33137691547810366           0.06952062569180552          0.9237640577834951 1.0000   
         C         C         1.0       0.3528757518897016  0.10463914732248131           0.9098475597180478 1.0000   
         H         H         1.0       0.34614907841894216           0.049143159164969176         0.9383356986199194 1.0000   
         H         H         1.0       0.31411678682469774           0.08987353331078032          0.9359488944958122 1.0000   
         H         H         1.0       0.35352492762032434           0.1336268970693628 0.923074762817318  1.0000   
         H         H         1.0       0.3383569109279772  0.1113363337797426  0.8917038401183566 1.0000   
         C         C         1.0       0.2872622807746133  0.1930699503952909  0.6056966218204395 1.0000   
         C         C         1.0       0.276581915000459   0.22800795421593    0.629239587905476  1.0000   
         H         H         1.0       0.26587709772418494           0.17488353522424757          0.5984217265434133 1.0000   
         H         H         1.0       0.3030343413386857  0.16694303106989997           0.6147451090668414 1.0000   
         H         H         1.0       0.25423676077892216           0.21234685802198403          0.639437664051742  1.0000   
         H         H         1.0       0.26422518597509653           0.2556987277641047 0.618637710011197  1.0000   
         C         C         1.0       0.2310588004778056  0.17170349956319308           0.7371728485764188 1.0000   
         C         C         1.0       0.23290591758093468           0.143629718633395  0.7103001671469256 1.0000   
         H         H         1.0       0.22706840937938702           0.15014651815331928          0.7548109737015967 1.0000   
         H         H         1.0       0.2088988001794558  0.19259173751677028           0.7365543345411223 1.0000   
         H         H         1.0       0.24859329402188093           0.16175622162798572          0.6943580130703624 1.0000   
         H         H         1.0       0.20764142902098778           0.14167488646848653          0.7025594663883706 1.0000   
         C         C         1.0       0.39650697424430764           0.33744416285028445          0.09740221374071223          1.0000   
         C         C         1.0       0.4136686811012002  0.3025019513485379  0.08040642351919502          1.0000   
         H         H         1.0       0.392642152219311   0.3661589363182295  0.0850896210333766 1.0000   
         H         H         1.0       0.4117196338846168  0.3486751618205939  0.11559131848393903          1.0000   
         H         H         1.0       0.4067730234332757  0.26885428634152725           0.08876254318120136          1.0000   
         H         H         1.0       0.4404496375212441  0.3084853444006714  0.08314310208640222          1.0000   
         C         C         1.0       0.49216659759933395           0.13566161911459607          0.019744273106320695         1.0000   
         C         C         1.0       0.5034812983786635  0.14814724361907178           0.9911587461117576 1.0000   
         H         H         1.0       0.47301434793811203           0.16055493041756436          0.026578069716112568         1.0000   
         H         H         1.0       0.512765388521882   0.14381183736163247           0.032753483494970835         1.0000   
         H         H         1.0       0.5124705278384747  0.11983610650382512           0.9766125515201765 1.0000   
         H         H         1.0       0.5241683736744559  0.16756851160513098           0.9938489664952029 1.0000   
         C         C         1.0       0.3254019671340465  0.10252570893242381           0.8002801920860697 1.0000   
         C         C         1.0       0.35413461088303094           0.07332637123704829          0.8048459649365038 1.0000   
         H         H         1.0       0.3057588087132258  0.0827486326781063  0.7928690453812545 1.0000   
         H         H         1.0       0.32922696868332124           0.1234959145568809 0.7823535261601172 1.0000   
         H         H         1.0       0.3545603449951707  0.038926857398673284         0.7939838703788852 1.0000   
         H         H         1.0       0.35610424277576    0.06341689874508581           0.8269010110545826 1.0000   
         C         C         1.0       0.4083374927074604  0.42795239850733996           0.15872483950653635          1.0000   
         C         C         1.0       0.3982032064900709  0.4544566888279005  0.1332225376570447 1.0000   
         H         H         1.0       0.41326213689266655           0.3924736795150223 0.15210442569858   1.0000   
         H         H         1.0       0.38915844711299963           0.42847002532638767          0.17325529400043277          1.0000   
         H         H         1.0       0.3806084302267116  0.43220572150403064           0.12134282410060611          1.0000   
         H         H         1.0       0.3852202926626208  0.48612447678328335           0.14016597319565452          1.0000   
         C         C         1.0       0.09411524807553746           0.683360055074028  0.09179543235211761          1.0000   
         C         C         1.0       0.10178145834352924           0.6523193411051809 0.06684597247985369          1.0000   
         H         H         1.0       0.09585923486654825           0.6654795967303879 0.11134859347784529          1.0000   
         H         H         1.0       0.06933295199767256           0.6960408161988112 0.09251071333706201          1.0000   
         H         H         1.0       0.12685961892064454           0.6400950662875413 0.06702839865118633          1.0000   
         H         H         1.0       0.10257042281119577           0.6729972985982403 0.0486465163542228 1.0000   
         C         C         1.0       0.005920522229051513          0.24342462646522325          0.9139481316202211 1.0000   
         C         C         1.0       0.008226853024784875          0.2721792167183695 0.8878332146834907 1.0000   
         H         H         1.0       0.011218513951700733          0.20752901214484548          0.9102688300380505 1.0000   
         H         H         1.0       0.49559975531108985           0.24689641714117225          0.9078180725095638 1.0000   
         H         H         1.0       0.005691665514350626          0.3074623491280629 0.8960309459727325 1.0000   
         H         H         1.0       0.03421967305638891           0.2703371735672191 0.8794246746642612 1.0000   
         C         C         1.0       0.4324371375574021  0.45537805576299256           0.9138544588839091 1.0000   
         C         C         1.0       0.4267133358655817  0.49611918322898735           0.9334810012677951 1.0000   
         H         H         1.0       0.45844428077148275           0.45846140233892685          0.9066544866971119 1.0000   
         H         H         1.0       0.4177788010241711  0.4571387204686814  0.8952699153908882 1.0000   
         H         H         1.0       0.3984458982539113  0.5027319250276218  0.9366678876786365 1.0000   
         H         H         1.0       0.4356005672877135  0.524421130263018   0.9216884975807171 1.0000   
         C         C         1.0       0.21181911984255739           0.24079613899903093          0.010908156670776492         1.0000   
         C         C         1.0       0.21288758770078808           0.19417383404046265          0.9946325584337818 1.0000   
         H         H         1.0       0.23728619727610192           0.25380474814665294          0.007987513583782135         1.0000   
         H         H         1.0       0.2105872409219078  0.23217685760538043           0.03411453387485965          1.0000   
         H         H         1.0       0.22846434684699887           0.17323792514665093          0.007679629044419656         1.0000   
         H         H         1.0       0.18922316614011697           0.1755663091187026 0.9962171583249908 1.0000   
         C         C         1.0       0.21387231979432278           0.3003598311576918 0.5735489799572279 1.0000   
         C         C         1.0       0.21737962590213533           0.3166126303872395 0.5446742235191246 1.0000   
         H         H         1.0       0.23616676835916245           0.28320944185920716          0.5798912894511233 1.0000   
         H         H         1.0       0.1934221318050606  0.2735795478090638  0.5720160447915135 1.0000   
         H         H         1.0       0.22039083113613878           0.28342322860591274          0.5329576965984408 1.0000   
         H         H         1.0       0.24154968529336754           0.33274152289933023          0.543270888308657  1.0000   
         C         C         1.0       0.08972822234282143           0.6037301456841625 0.6549780895435523 1.0000   
         C         C         1.0       0.11364111279572668           0.5914943948900159 0.6318708903381792 1.0000   
         H         H         1.0       0.10203082028519665           0.5975893066948572 0.6747757388233238 1.0000   
         H         H         1.0       0.06904091491821973           0.5796263241250824 0.6569300254557908 1.0000   
         H         H         1.0       0.13015267810524067           0.6191549831607196 0.6287353278799328 1.0000   
         H         H         1.0       0.10047868673398293           0.5907418919814347 0.613227726499497  1.0000   
         C         C         1.0       0.0637031109934327  0.4233742299526287  0.8536529005901189 1.0000   
         C         C         1.0       0.09029994804421385           0.448196689630835  0.8714304425738642 1.0000   
         H         H         1.0       0.048244589329475084          0.45023318239743587          0.8462089143711771 1.0000   
         H         H         1.0       0.04871779139279817           0.4035516338164535 0.8666233802470962 1.0000   
         H         H         1.0       0.08156141897629436           0.48355172070068403          0.8754551485884893 1.0000   
         H         H         1.0       0.1140439571170016  0.45088553245738816           0.861737554200695  1.0000   
         C         C         1.0       0.26072359708257087           0.39152188824678086          0.8115285088722612 1.0000   
         C         C         1.0       0.2540862275691113  0.3970419210434387  0.8426611250689496 1.0000   
         H         H         1.0       0.2811985007742323  0.369695012316997   0.8075604573114359 1.0000   
         H         H         1.0       0.26407236914506627           0.4251703741522556 0.8019533117417776 1.0000   
         H         H         1.0       0.26714419044493776           0.42477653262770876          0.8514793559643283 1.0000   
         H         H         1.0       0.22681822296099538           0.4033081880954262 0.8459433171876778 1.0000   
         C         C         1.0       0.07747724850551027           0.15612252275059177          0.7472293844726855 1.0000   
         C         C         1.0       0.041474427057872194          0.15217828261775032          0.7350896881951449 1.0000   
         H         H         1.0       0.09391037623341397           0.1339928983536926 0.7331408178828729 1.0000   
         H         H         1.0       0.0799849562875564  0.13783040029728916           0.7660597270599803 1.0000   
         H         H         1.0       0.03486658355633652           0.11830437169276692          0.7281040755855035 1.0000   
         H         H         1.0       0.04310088348394449           0.171224793625598  0.7158800083403168 1.0000   
         C         C         1.0       0.3216714177658924  0.4837381735119611  0.7389900992688461 1.0000   
         C         C         1.0       0.3030228153180294  0.49764711607805384           0.7136557437320223 1.0000   
         H         H         1.0       0.3053241869524786  0.48773687644901276           0.7581122368313393 1.0000   
         H         H         1.0       0.34402891431194393           0.504794774341871  0.7418106576941798 1.0000   
         H         H         1.0       0.3187462503952374  0.49793851681017753           0.6949378373482755 1.0000   
         H         H         1.0       0.29782387468595195           0.5333037572613692 0.7145993970281282 1.0000   
         C         C         1.0       0.6214385884366808  0.2227458213776613  0.7486168582737228 1.0000   
         C         C         1.0       0.6441056910474576  0.22574751367232185           0.7684924346881985 1.0000   
         C         C         1.0       0.6576470161980009  0.26584474034370587           0.7770906369343434 1.0000   
         C         C         1.0       0.6476857536926842  0.30550238987421713           0.7644110960116024 1.0000   
         C         C         1.0       0.6235518116981917  0.3013410786884842  0.7455787964663747 1.0000   
         C         C         1.0       0.6107293058508889  0.26161465408412304           0.7369838302403212 1.0000   
         H         H         1.0       0.6525316556143622  0.19451004406892983           0.7773201662568904 1.0000   
         H         H         1.0       0.6735120742218073  0.26361079319972985           0.7933123189948372 1.0000   
         H         H         1.0       0.6103261338333084  0.3320645092327381  0.7391431365820642 1.0000   
         H         H         1.0       0.5926221047289906  0.2632218811508208  0.7214693725221353 1.0000   
         C         C         1.0       0.7152942768903104  0.3423991721352038  0.794875772282884  1.0000   
         C         C         1.0       0.6898727580473568  0.3702027559327012  0.7884501434251647 1.0000   
         C         C         1.0       0.6940513562451313  0.4159842928853871  0.7967897208760886 1.0000   
         C         C         1.0       0.7205904090938234  0.43124380905166265           0.8107288321123913 1.0000   
         C         C         1.0       0.7438511601788994  0.4012768631270434  0.8180345925982171 1.0000   
         C         C         1.0       0.7398217881904984  0.3568120512892324  0.8108346742208024 1.0000   
         C         C         1.0       0.6572779460915419  0.3564579583281586  0.7725135811460486 1.0000   
         C         C         1.0       0.6291550739062329  0.3723855694209699  0.7938860362882882 1.0000   
         C         C         1.0       0.6034512237568314  0.39945979761546074           0.7885740129597335 1.0000   
         C         C         1.0       0.5858137659317454  0.4186473108956683  0.8109946672356939 1.0000   
         C         C         1.0       0.5927065237353122  0.4082604149169497  0.8371871158147342 1.0000   
         C         C         1.0       0.6137405612583798  0.3732914175098657  0.8419853133938435 1.0000   
         C         C         1.0       0.6312135416001057  0.35582256040244487           0.8202187418057744 1.0000   
         C         C         1.0       0.679091921909435   0.36565837039754556           0.7230815167830881 1.0000   
         C         C         1.0       0.6873410513270262  0.39061057026583534           0.7007666579076413 1.0000   
         C         C         1.0       0.6784075905641476  0.4345125992437877  0.6978931071574273 1.0000   
         C         C         1.0       0.6616907371943319  0.455316638002252   0.71959886507057   1.0000   
         C         C         1.0       0.652024000487016   0.42986751272791135           0.7418066686214124 1.0000   
         C         C         1.0       0.6617911669144898  0.386170612626869   0.7445028476014359 1.0000   
         C         C         1.0       0.6878399385439947  0.45914567924012745           0.6717537542500308 1.0000   
         C         C         1.0       0.7733109739864614  0.5227063642066493  0.7111431666592118 1.0000   
         C         C         1.0       0.7745675218974848  0.4801271248667562  0.6985813707926706 1.0000   
         C         C         1.0       0.7485663947243679  0.4632197313028702  0.6841779266938657 1.0000   
         C         C         1.0       0.7193761204030611  0.48540257911045354           0.6831451016844606 1.0000   
         C         C         1.0       0.7188159781347543  0.527477007728091   0.6960829907863365 1.0000   
         C         C         1.0       0.7455621549053421  0.5448182331016584  0.709639245346821  1.0000   
         C         C         1.0       0.6589296813931714  0.48957441134938773           0.6603924592792001 1.0000   
         C         C         1.0       0.6265678801069546  0.47676265390010714           0.6634644441769721 1.0000   
         C         C         1.0       0.6012102965432208  0.5038277548443525  0.6561272037492908 1.0000   
         C         C         1.0       0.6088120690118795  0.5414677880291002  0.6414664838106641 1.0000   
         C         C         1.0       0.6405260906716794  0.5531198802453295  0.6348728584525987 1.0000   
         C         C         1.0       0.6657153470846853  0.5269841651007839  0.6466492029605678 1.0000   
         C         C         1.0       0.7232368864682134  0.429178611966234   0.6281386402141442 1.0000   
         C         C         1.0       0.7276921428472349  0.3955287488845383  0.6067751610003859 1.0000   
         C         C         1.0       0.7038228795024901  0.36868803467637246           0.5988215990516698 1.0000   
         C         C         1.0       0.6758801149259702  0.36772415324570906           0.6146924812498793 1.0000   
         C         C         1.0       0.672028332967212   0.3946057453434074  0.6371961535652619 1.0000   
         C         C         1.0       0.695199320551803   0.42810809895193946           0.6441398307137729 1.0000   
         H         H         1.0       0.7156268472267913  0.3090390391461217  0.7876765440211335 1.0000   
         H         H         1.0       0.6773033044943814  0.44336883590420006           0.7911813623433065 1.0000   
         H         H         1.0       0.7261565942534393  0.46601773916119427           0.8156807460682098 1.0000   
         H         H         1.0       0.7568537361535544  0.33073254165279325           0.8164093065960526 1.0000   
         H         H         1.0       0.5997840394848302  0.4160345247739791  0.768661965844857  1.0000   
         H         H         1.0       0.5697644345167442  0.44702098302059484           0.8055712221452072 1.0000   
         H         H         1.0       0.6216686938605207  0.3671608323542496  0.8614433832918071 1.0000   
         H         H         1.0       0.6501530815138883  0.3345504812748649  0.8243173614177346 1.0000   
         H         H         1.0       0.6833386310285179  0.32947567084362733           0.7235783581681723 1.0000   
         H         H         1.0       0.7012226715084056  0.37149479361230225           0.6843995559339235 1.0000   
         H         H         1.0       0.6555016855708458  0.48851510222982275           0.7201438707722101 1.0000   
         H         H         1.0       0.64129393469496    0.4492250149314073  0.7583609792780511 1.0000   
         H         H         1.0       0.7961716075189804  0.4586119880532301  0.6981673499536314 1.0000   
         H         H         1.0       0.75047286401096    0.42901955336903186           0.6782804645832504 1.0000   
         H         H         1.0       0.6958837133824941  0.5430084634884486  0.6966118063714045 1.0000   
         H         H         1.0       0.7459069010101753  0.5781294499900725  0.7193641808557457 1.0000   
         H         H         1.0       0.6191400468804397  0.446574801479376   0.674256911242815  1.0000   
         H         H         1.0       0.5764670676617855  0.49591694430943295           0.6626253527171436 1.0000   
         H         H         1.0       0.6448567526694371  0.5828870483494079  0.6243378972028065 1.0000   
         H         H         1.0       0.6902326396087293  0.5380418542411729  0.6448916313698895 1.0000   
         H         H         1.0       0.7417090427407718  0.4535717567966955  0.6322113848934195 1.0000   
         H         H         1.0       0.7491771126418354  0.3910325287563118  0.5965381389293279 1.0000   
         H         H         1.0       0.6566379574427613  0.34692069187141833           0.6085383205438901 1.0000   
         H         H         1.0       0.6498781160533716  0.3945448207353148  0.6483003885059762 1.0000   
         C         C         1.0       0.6533164802817285  0.3029419949612089  0.02828082673777499          1.0000   
         C         C         1.0       0.6616156403792058  0.3428766823077676  0.016525553323511577         1.0000   
         C         C         1.0       0.6361971239655001  0.3694820857022414  0.007154879419246862         1.0000   
         C         C         1.0       0.604726850785915   0.35373553584783196           0.0062047038237762475        1.0000   
         C         C         1.0       0.5973970124121537  0.3173524291520838  0.01925836271523207          1.0000   
         C         C         1.0       0.6212546772506965  0.29265089888505297           0.0314877396808251 1.0000   
         H         H         1.0       0.6864644035424557  0.3506259271553129  0.01056425169093722          1.0000   
         H         H         1.0       0.642116465043087   0.397838225521717   0.9949277188505148 1.0000   
         H         H         1.0       0.5736677867582334  0.30177310381246786           0.01669503457432331          1.0000   
         H         H         1.0       0.6131599659306582  0.26165849218892584           0.039096316842691756         1.0000   
         C         C         1.0       0.5778540651862943  0.2998148237911766  0.9572736716992837 1.0000   
         C         C         1.0       0.5599191885850069  0.3368705853066124  0.9673863846160157 1.0000   
         C         C         1.0       0.5287679634345013  0.34243100751872935           0.9571397730620111 1.0000   
         C         C         1.0       0.5181861698093353  0.31492682402008126           0.9363573052274163 1.0000   
         C         C         1.0       0.5361083920674722  0.27827432989169587           0.9269374676512221 1.0000   
         C         C         1.0       0.5661626390545668  0.2707710998075195  0.9368082259763545 1.0000   
         C         C         1.0       0.5784851136161895  0.37665254018327554           0.9863968185970284 1.0000   
         C         C         1.0       0.588626965211971   0.4090798157606225  0.9610747499303693 1.0000   
         C         C         1.0       0.5711419810739247  0.44428168158066134           0.951664278230323  1.0000   
         C         C         1.0       0.5767142533606274  0.461127936700315   0.9257497526208082 1.0000   
         C         C         1.0       0.6009983719468229  0.443364073976662   0.9095713228832948 1.0000   
         C         C         1.0       0.6200824265647583  0.4105849001919084  0.9197637613261925 1.0000   
         C         C         1.0       0.6141937019335131  0.3923250563180305  0.9449672381081948 1.0000   
         C         C         1.0       0.5286294781347699  0.38826252306229575           0.01974415462358909          1.0000   
         C         C         1.0       0.5091584910753735  0.4199095197817253  0.033238298910705184         1.0000   
         C         C         1.0       0.5186399319521126  0.4637511561158006  0.03810092109182217          1.0000   
         C         C         1.0       0.5488075068076992  0.47705127211233334           0.029255461971125142         1.0000   
         C         C         1.0       0.5688106597902722  0.4459365456446126  0.016955982478682685         1.0000   
         C         C         1.0       0.5567243425598926  0.40323671011459405           0.008166755316305174         1.0000   
         C         C         1.0       0.48927035179438555           0.4976239791652331 0.043523485301448804         1.0000   
         C         C         1.0       0.9853698948677027  0.46349704240864575           0.9652459472878149 1.0000   
         C         C         1.0       0.9788468774686365  0.4370566722072413  0.987328822616815  1.0000   
         C         C         1.0       0.9962391569620047  0.44172474754140184           0.011747138052548012         1.0000   
         C         C         1.0       0.019310005238872163          0.4742933575232685 0.015976833532113616         1.0000   
         C         C         1.0       0.4879268510403492  0.5109096053604929  0.9915386465528487 1.0000   
         C         C         1.0       0.009307842126975219          0.49584106917196463          0.9679497278702214 1.0000   
         C         C         1.0       0.5022885659343074  0.5474718782761695  0.05153621156125128          1.0000   
         C         C         1.0       0.5251733605426578  0.5545229505298174  0.07309004449144552          1.0000   
         C         C         1.0       0.5403438473728212  0.5971750819885014  0.07683027135256595          1.0000   
         C         C         1.0       0.5340414575426491  0.6315301224968908  0.05966039277460233          1.0000   
         C         C         1.0       0.5105958724621859  0.626237840927546   0.0397021958136262 1.0000   
         C         C         1.0       0.4944583562653061  0.5865905922231324  0.03672610462296219          1.0000   
         C         C         1.0       0.9838430350638714  0.49024601236707915           0.07036450842242914          1.0000   
         C         C         1.0       0.96106550992229    0.4782827331776031  0.08880585815570562          1.0000   
         C         C         1.0       0.9694368000654171  0.4503200047652471  0.10869939177543621          1.0000   
         C         C         1.0       0.0014551836156462272         0.4369136315222245 0.11174448290693136          1.0000   
         C         C         1.0       0.02420088432998302           0.4485602493436183 0.0932531247485156 1.0000   
         C         C         1.0       0.014844635823497931          0.47373716996755805          0.07005610162576707          1.0000   
         H         H         1.0       0.6017400862368032  0.29313177882420394           0.9641824548319805 1.0000   
         H         H         1.0       0.5132682539482747  0.36872131631684163           0.9626962521352125 1.0000   
         H         H         1.0       0.9950616569062358  0.3162931726316638  0.9509284659013151 1.0000   
         H         H         1.0       0.5815477277562907  0.24082751039298858           0.9300415683127204 1.0000   
         H         H         1.0       0.5500418356206922  0.45848726136821427           0.9627128009996625 1.0000   
         H         H         1.0       0.5578305370429626  0.48458985205773814           0.9179946800710354 1.0000   
         H         H         1.0       0.6378226691317441  0.39418147379049007           0.9084314578217367 1.0000   
         H         H         1.0       0.6301456843693011  0.3642953182793771  0.9519429479021932 1.0000   
         H         H         1.0       0.5190920421621397  0.3539389113173025  0.012664474549777203         1.0000   
         H         H         1.0       0.4842857471058538  0.4090648973233101  0.03522707614661511          1.0000   
         H         H         1.0       0.5572991773945898  0.5107736034079499  0.033747138830246715         1.0000   
         H         H         1.0       0.5919291298984165  0.4558381507657135  0.010874917671678475         1.0000   
         H         H         1.0       0.9603280365710112  0.4128564288244515  0.9873400832338659 1.0000   
         H         H         1.0       0.9888152000853434  0.42204740068647695           0.02865866131615796          1.0000   
         H         H         1.0       0.513336248931525   0.514492183673226   0.9909629596599296 1.0000   
         H         H         1.0       0.017085540620946027          0.5184827407310046 0.9524363473334465 1.0000   
         H         H         1.0       0.5319957232604059  0.529724875049788   0.08788215857722383          1.0000   
         H         H         1.0       0.5586612174746626  0.5982917609719393  0.0917631211084103 1.0000   
         H         H         1.0       0.0468585138163542  0.6394383660073693  0.04032293346725595          1.0000   
         H         H         1.0       0.018205904526461758          0.5683894873000873 0.03306472401968044          1.0000   
         H         H         1.0       0.9736514798319694  0.5106284501372124  0.05505305490324544          1.0000   
         H         H         1.0       0.9367919873416245  0.48738910509719385           0.08638241422320525          1.0000   
         H         H         1.0       0.006432239768324521          0.41320647356627715          0.12784798190873262          1.0000   
         H         H         1.0       0.497216675676426   0.44213183305028664           0.08433873277817468          1.0000   
         C         C         1.0       0.9324817389490294  0.3943027947243121  0.9337281966217623 1.0000   
         C         C         1.0       0.9411448975641946  0.3498723566420449  0.927374902785949  1.0000   
         C         C         1.0       0.9272109139828858  0.3160905358949187  0.9418039239738951 1.0000   
         C         C         1.0       0.9053419923757202  0.3241070554077584  0.9627171730197593 1.0000   
         C         C         1.0       0.893232456511428   0.367684449390426   0.9647185850483296 1.0000   
         C         C         1.0       0.9069821767709432  0.40136280595136353           0.9516638872435045 1.0000   
         H         H         1.0       0.955836062564564   0.34055780570308086           0.9102942999907285 1.0000   
         H         H         1.0       0.9327392016456614  0.28309000928750283           0.9347158257852165 1.0000   
         H         H         1.0       0.8738571283485028  0.37407678946662704           0.9784005965820558 1.0000   
         H         H         1.0       0.9020200617535472  0.43488649512677685           0.9581565225629017 1.0000   
         C         C         1.0       0.9170505941977951  0.3233700521547186  0.02601369751414026          1.0000   
         C         C         1.0       0.8955048016549684  0.2943122644700822  0.014162121873519062         1.0000   
         C         C         1.0       0.8782035690140853  0.2680645019373293  0.030170632741340006         1.0000   
         C         C         1.0       0.8806401984754638  0.27107182317427153           0.05707012610901849          1.0000   
         C         C         1.0       0.9014825552797321  0.3004544370195028  0.07009589614371212          1.0000   
         C         C         1.0       0.9205616711605067  0.32587724881835967           0.05337230037466   1.0000   
         C         C         1.0       0.896102143585212   0.2832226570205387  0.9813829479914149 1.0000   
         C         C         1.0       0.9166818881728679  0.23790483275119803           0.9827736573303575 1.0000   
         C         C         1.0       0.9026969320133342  0.19637715215277052           0.9844196866513799 1.0000   
         C         C         1.0       0.9198118298397195  0.1565561356776508  0.9879123645462866 1.0000   
         C         C         1.0       0.9526011805795633  0.15881496150221444           0.9882329550114752 1.0000   
         C         C         1.0       0.9675698888072546  0.19918729914570388           0.9870229844413472 1.0000   
         C         C         1.0       0.9501822688103808  0.241152659799119   0.9849591243765528 1.0000   
         C         C         1.0       0.8349925681017073  0.29497348539796175           0.9786716565091577 1.0000   
         C         C         1.0       0.8060215014280816  0.2881265932988272  0.965945078222518  1.0000   
         C         C         1.0       0.8032677150765821  0.2673012758799923  0.9406138185356787 1.0000   
         C         C         1.0       0.831512070973452   0.24881788618992706           0.9291702733129641 1.0000   
         C         C         1.0       0.8596966021394615  0.25071519792400004           0.9420902209463347 1.0000   
         C         C         1.0       0.862427747660889   0.2768226001513783  0.9664092110901153 1.0000   
         C         C         1.0       0.7710385218227933  0.26879270264616784           0.9225171759162347 1.0000   
         C         C         1.0       0.7008787172300007  0.23097696182174388           0.9850888969207118 1.0000   
         C         C         1.0       0.6939209480324839  0.2649441601651968  0.9683415609926056 1.0000   
         C         C         1.0       0.7151559778888246  0.2761690036409503  0.948081865828544  1.0000   
         C         C         1.0       0.7433576502189226  0.25196577524309494           0.9425787901074251 1.0000   
         C         C         1.0       0.7481535290470255  0.2136700432824456  0.9580692336085388 1.0000   
         C         C         1.0       0.7276941487543127  0.20498323650845743           0.9795852785918947 1.0000   
         C         C         1.0       0.7721202947283794  0.23807405593783454           0.8947815556474563 1.0000   
         C         C         1.0       0.7856672707147487  0.25729614619863383           0.8715583012067051 1.0000   
         C         C         1.0       0.7857971138109006  0.2346891986432841  0.8468897201173377 1.0000   
         C         C         1.0       0.7755378167765121  0.19267532749407762           0.8441020703788059 1.0000   
         C         C         1.0       0.7637873875615869  0.17158028782404225           0.8659884978929218 1.0000   
         C         C         1.0       0.7623489587146631  0.19308901185444588           0.8920827409190145 1.0000   
         C         C         1.0       0.7409662746403731  0.332721350714624   0.8987219541278787 1.0000   
         C         C         1.0       0.7375893251436193  0.37322932715726226           0.8857498365955189 1.0000   
         C         C         1.0       0.7649972659524508  0.40051395851439153           0.883492337602292  1.0000   
         C         C         1.0       0.7911915091471913  0.3916341722137455  0.8989514844010309 1.0000   
         C         C         1.0       0.7931673606438377  0.3545877205249706  0.9157476743183076 1.0000   
         C         C         1.0       0.7686171206912553  0.3219624737009358  0.9146032632009005 1.0000   
         H         H         1.0       0.9331452208406414  0.3409294341595338  0.012642380247010587         1.0000   
         H         H         1.0       0.8595350250483528  0.24546220791244397           0.020894650353879718         1.0000   
         H         H         1.0       0.8645506119519507  0.25012485051703715           0.06875182549965826          1.0000   
         H         H         1.0       0.9357060009380878  0.35228145038875225           0.061542956702778165         1.0000   
         H         H         1.0       0.8772765126143026  0.1901879546936038  0.9827095344303728 1.0000   
         H         H         1.0       0.9078666197979339  0.1252868923879803  0.9895788302546197 1.0000   
         H         H         1.0       0.9936431020790122  0.20132846752462044           0.990379277912599  1.0000   
         H         H         1.0       0.9603694658339172  0.27479516066917403           0.9848530533503688 1.0000   
         H         H         1.0       0.8346234145439971  0.31686528007371667           0.9973586568610509 1.0000   
         H         H         1.0       0.7844635490858622  0.30166474253553116           0.9778506120226736 1.0000   
         H         H         1.0       0.8331141207743996  0.2370325924148642  0.9090772640788407 1.0000   
         H         H         1.0       0.8820789555798442  0.23546914580741476           0.9341948363612338 1.0000   
         H         H         1.0       0.669472765522388   0.2811521488317572  0.971072988189029  1.0000   
         H         H         1.0       0.7069051319458897  0.30117287856992936           0.935478069548763  1.0000   
         H         H         1.0       0.7702840190289675  0.19488854082192317           0.9573154017190478 1.0000   
         H         H         1.0       0.7353366052116326  0.18084541551690875           0.9937594051859776 1.0000   
         H         H         1.0       0.7946560838337445  0.289069551563133   0.8716291954330514 1.0000   
         H         H         1.0       0.7980268479992104  0.24866073161276167           0.8301235466229009 1.0000   
         H         H         1.0       0.7543963998183966  0.1380953164402912  0.8644048399555851 1.0000   
         H         H         1.0       0.7484896750132491  0.180346556823326   0.9097772698080373 1.0000   
         H         H         1.0       0.7239300667689303  0.3064030514175293  0.8950749541900557 1.0000   
         H         H         1.0       0.7153591449561061  0.3790652089791409  0.8721776542184666 1.0000   
         H         H         1.0       0.8133028255673324  0.4115679746342001  0.8984248508445107 1.0000   
         H         H         1.0       0.8173848443601192  0.3471553111856051  0.9221221863878214 1.0000   
         C         C         1.0       0.8200176831853542  0.469146270132623   0.7526661479485374 1.0000   
         C         C         1.0       0.796898314588479   0.4400796451782609  0.7611128188090792 1.0000   
         C         C         1.0       0.7977938994604209  0.3961787094143253  0.7560911891517973 1.0000   
         C         C         1.0       0.8243787164730726  0.3783407932758977  0.7427031162714234 1.0000   
         C         C         1.0       0.8501767095201688  0.40470703859491786           0.7358947688234547 1.0000   
         C         C         1.0       0.8482786982510285  0.4520544549581116  0.7415585602221247 1.0000   
         H         H         1.0       0.7753502140142765  0.4524695855685694  0.7709335120107922 1.0000   
         H         H         1.0       0.7831365552907629  0.37233349505095176           0.7658091836355578 1.0000   
         H         H         1.0       0.8728831289236729  0.3924075036469286  0.7267555169375458 1.0000   
         H         H         1.0       0.8657622674845983  0.4754194550133449  0.7370688465051938 1.0000   
         C         C         1.0       0.8090049881205251  0.35732111790390864           0.6868910748459823 1.0000   
         C         C         1.0       0.8242131551093281  0.32449063651285626           0.7013643596505169 1.0000   
         C         C         1.0       0.8302571596039103  0.2833308334529536  0.6879536212539523 1.0000   
         C         C         1.0       0.8202502721447289  0.27630911143195686           0.6622194213696686 1.0000   
         C         C         1.0       0.8031934527523737  0.30799796175971716           0.6477374494537321 1.0000   
         C         C         1.0       0.79644251595547    0.3486047186438839  0.6610312748102609 1.0000   
         C         C         1.0       0.8270100671857933  0.32703065342294585           0.7330947198972608 1.0000   
         C         C         1.0       0.7980025539281838  0.2923152333929807  0.741971810872861  1.0000   
         C         C         1.0       0.8045963079025624  0.2483639024533287  0.7487104691357953 1.0000   
         C         C         1.0       0.7835207883520581  0.21398420596234521           0.7466650722121084 1.0000   
         C         C         1.0       0.7524166909927674  0.2248600928735884  0.7377723341516372 1.0000   
         C         C         1.0       0.7435975140783673  0.26750349348222147           0.7333534641004378 1.0000   
         C         C         1.0       0.7654995486428948  0.30142985230167757           0.7357465491130931 1.0000   
         C         C         1.0       0.8846755428805432  0.29046333178103984           0.7339809807709748 1.0000   
         C         C         1.0       0.9072788466734919  0.26606237578431047           0.7481379065209318 1.0000   
         C         C         1.0       0.9070935386465405  0.26544112678793674           0.7753828048351112 1.0000   
         C         C         1.0       0.8855023018008598  0.29302751161858176           0.7890592074303973 1.0000   
         C         C         1.0       0.8614511597558316  0.3155229637339192  0.7752522477927816 1.0000   
         C         C         1.0       0.8591959233508801  0.31281826215161335           0.7471478837021475 1.0000   
         C         C         1.0       0.926984013563204   0.228387281180805   0.7933729067346597 1.0000   
         C         C         1.0       0.5444041030300134  0.1689226106619908  0.7337187720637542 1.0000   
         C         C         1.0       0.5299184991827658  0.21067505765406971           0.732775096073119  1.0000   
         C         C         1.0       0.9775892011544957  0.23278518646407248           0.7624482268797085 1.0000   
         C         C         1.0       0.9554548706946027  0.20553360069560048           0.7755384736128512 1.0000   
         C         C         1.0       0.9623424772932693  0.16028996934824713           0.7735857190437045 1.0000   
         C         C         1.0       0.9900911925833386  0.14377925681194606           0.7616347190711518 1.0000   
         C         C         1.0       0.8989119888832534  0.193186029078054   0.7988173416746633 1.0000   
         C         C         1.0       0.8814162475598258  0.19724423585871848           0.8230464439605701 1.0000   
         C         C         1.0       0.8531607158918225  0.1754656982717663  0.8262665444020946 1.0000   
         C         C         1.0       0.8380827823275396  0.15225435328075484           0.8054970589882762 1.0000   
         C         C         1.0       0.853535532755584   0.15018932558196    0.7807679738586984 1.0000   
         C         C         1.0       0.8850842135620639  0.16898057253355073           0.7778956607089638 1.0000   
         C         C         1.0       0.9582904330978697  0.20595174088302734           0.836389701350786  1.0000   
         C         C         1.0       0.9773286188902399  0.21779478108641523           0.8586651509610995 1.0000   
         C         C         1.0       0.9869302600197699  0.26012608268769905           0.8648685184316605 1.0000   
         C         C         1.0       0.9776217915357808  0.29227219313361125           0.8469170874207934 1.0000   
         C         C         1.0       0.9579541495806791  0.2852812661335682  0.8258099396696656 1.0000   
         C         C         1.0       0.948247720768798   0.24175757228857778           0.8192590483792321 1.0000   
         H         H         1.0       0.8005282895596272  0.3895885544443754  0.6964621675518264 1.0000   
         H         H         1.0       0.8389683209923978  0.25581959962549017           0.6989410720800674 1.0000   
         H         H         1.0       0.8226446023650686  0.24184314209087238           0.6548498403488762 1.0000   
         H         H         1.0       0.7810606385649155  0.37297905327608516           0.6517266076018251 1.0000   
         H         H         1.0       0.828531526197848   0.23831152118908364           0.7511176854546334 1.0000   
         H         H         1.0       0.7916159991120533  0.18065175683384396           0.7503227504032228 1.0000   
         H         H         1.0       0.7192748354541811  0.2763567690899317  0.72409664087122   1.0000   
         H         H         1.0       0.7599985917154667  0.33459699447367786           0.7300759293659992 1.0000   
         H         H         1.0       0.8835724570031315  0.28701149296395734           0.7130142158509216 1.0000   
         H         H         1.0       0.9244227609694473  0.24897643235810074           0.7351707281020269 1.0000   
         H         H         1.0       0.8880507533792094  0.2962275416375778  0.8100610220014092 1.0000   
         H         H         1.0       0.8443666691277342  0.33933631544663523           0.7872312451736735 1.0000   
         H         H         1.0       0.5426183859343675  0.23885532982116306           0.7242321009682322 1.0000   
         H         H         1.0       0.9732166721988887  0.26975938900088525           0.7637046245542138 1.0000   
         H         H         1.0       0.9461820258749386  0.1338049877447193  0.7808454537862459 1.0000   
         H         H         1.0       0.996309039923667   0.10813184486451612           0.7597330406089217 1.0000   
         H         H         1.0       0.8897276533105437  0.21959865513478646           0.8389968047621523 1.0000   
         H         H         1.0       0.8414542829508201  0.17742425835131578           0.845961670382281  1.0000   
         H         H         1.0       0.8413822519337306  0.13457096242167133           0.7623864728585629 1.0000   
         H         H         1.0       0.8944598614186671  0.17245403226358239           0.7560778025842161 1.0000   
         H         H         1.0       0.9540822788531382  0.17085672247984787           0.8326738311052325 1.0000   
         H         H         1.0       0.9849121742522468  0.19019624112259978           0.8705021581303094 1.0000   
         H         H         1.0       0.9864842643374727  0.3267811865632556  0.8504275761331374 1.0000   
         H         H         1.0       0.9546754722354087  0.31186559584802015           0.811771271384895  1.0000   
         C         C         1.0       0.8663693786519744  0.9024108980577348  0.710769942140353  1.0000   
         C         C         1.0       0.865153629895457   0.9479345230299848  0.7120164035071802 1.0000   
         C         C         1.0       0.8353000612690886  0.9675880708317008  0.713866164208347  1.0000   
         C         C         1.0       0.8062236662598277  0.9441836344573004  0.7142696312204324 1.0000   
         C         C         1.0       0.8094668011110547  0.8978260015050095  0.713289397039166  1.0000   
         C         C         1.0       0.8387659554916984  0.8772125582836834  0.7150564510095261 1.0000   
         H         H         1.0       0.8865407677711878  0.9679753460577054  0.7126880362033104 1.0000   
         H         H         1.0       0.835497765630057   0.005429882223201732         0.7171788276283477 1.0000   
         H         H         1.0       0.790567771068848   0.8743715602553874  0.7171840836616287 1.0000   
         H         H         1.0       0.8398049369554506  0.8415466579519045  0.7171683241009346 1.0000   
         C         C         1.0       0.7473043783221681  0.9285456190721808  0.6808150150428285 1.0000   
         C         C         1.0       0.7447890463856105  0.9374365993814031  0.7086631758606073 1.0000   
         C         C         1.0       0.7166644378265561  0.9286651474239831  0.7223578502371315 1.0000   
         C         C         1.0       0.6923963590207224  0.9056551518827418  0.7085813263606898 1.0000   
         C         C         1.0       0.6949158546745138  0.8975406840679944  0.680478383359917  1.0000   
         C         C         1.0       0.7233591357610439  0.905491250798444   0.667145194412978  1.0000   
         C         C         1.0       0.7726210431405953  0.9688706018655256  0.7220446286072738 1.0000   
         C         C         1.0       0.7603069182556159  0.01630305384567299           0.712374523069572  1.0000   
         C         C         1.0       0.7323175048849127  0.03535911326516798           0.7235898722006597 1.0000   
         C         C         1.0       0.7268385491731639  0.08047511257197831           0.7218281250949335 1.0000   
         C         C         1.0       0.7469856643747728  0.10820929030087391           0.7062773727129078 1.0000   
         C         C         1.0       0.7704227206451425  0.08735039037718724           0.6906360610197807 1.0000   
         C         C         1.0       0.7782854124500439  0.04295122023240013           0.6954508539515821 1.0000   
         C         C         1.0       0.7685546706168107  0.934303817804886   0.771885973311414  1.0000   
         C         C         1.0       0.7700656035880528  0.9368606052709672  0.799876454101013  1.0000   
         C         C         1.0       0.7795548472637102  0.9766942185848112  0.8123610927134458 1.0000   
         C         C         1.0       0.7901848364979516  0.00949624398334925           0.7955844542672895 1.0000   
         C         C         1.0       0.789981905184747   0.005622926401420483         0.7676958184188489 1.0000   
         C         C         1.0       0.7754038484113027  0.9687010354627402  0.75502225748928   1.0000   
         C         C         1.0       0.7740547101074573  0.9872792093591539  0.8442019659617829 1.0000   
         C         C         1.0       0.6805758304338443  0.05552848736827158           0.8378673892175645 1.0000   
         C         C         1.0       0.6818409667604243  0.009003154709988248         0.84219833973689   1.0000   
         C         C         1.0       0.7115354873141138  0.9866807943413669  0.8433816967332517 1.0000   
         C         C         1.0       0.7403023612114128  0.011255544933029826         0.8429528782356478 1.0000   
         C         C         1.0       0.7384981556349419  0.05733437711309575           0.8385569224669285 1.0000   
         C         C         1.0       0.7092322088139839  0.0790521863745536  0.8365206112786542 1.0000   
         C         C         1.0       0.7994886087397945  0.021712210890058703         0.8604196298164267 1.0000   
         C         C         1.0       0.829866489927148   0.0310656092658584  0.8504972796837879 1.0000   
         C         C         1.0       0.8477501684824125  0.06446955852758363           0.862181409255902  1.0000   
         C         C         1.0       0.8384428320462481  0.08594408290105414           0.8861315608232951 1.0000   
         C         C         1.0       0.8076215266502529  0.0766351122312742  0.8954883118685423 1.0000   
         C         C         1.0       0.7893458578979177  0.04337346539491302           0.8833277690310171 1.0000   
         C         C         1.0       0.7623414679651622  0.934500275437201   0.8810120659499118 1.0000   
         C         C         1.0       0.7728474771497795  0.9106268061295851  0.9021677592631169 1.0000   
         C         C         1.0       0.8047857858642851  0.8957317142167631  0.904906370705115  1.0000   
         C         C         1.0       0.8247131243835751  0.903117107467218   0.8824743045280398 1.0000   
         C         C         1.0       0.8134886601782414  0.926114029078409   0.8601897976233676 1.0000   
         C         C         1.0       0.7820220990050656  0.9442530967959694  0.8598629274580437 1.0000   
         H         H         1.0       0.7672339362754598  0.9364986294094209  0.6698745405180538 1.0000   
         H         H         1.0       0.7112595266491318  0.9404089559562795  0.7431322671801172 1.0000   
         H         H         1.0       0.6693516525436384  0.9038557382514597  0.7199085809203651 1.0000   
         H         H         1.0       0.7271264791864981  0.8993145833960734  0.6456572950395014 1.0000   
         H         H         1.0       0.7168914332223354  0.01612295923914831           0.7368492208872739 1.0000   
         H         H         1.0       0.7059935920951165  0.09492366976689101           0.733877320498211  1.0000   
         H         H         1.0       0.7858824814969512  0.10692645308067304           0.6775080262696477 1.0000   
         H         H         1.0       0.7983467143542384  0.025774289494080005         0.6840081177774013 1.0000   
         H         H         1.0       0.7627547556538835  0.9021655765220756  0.7619664976823879 1.0000   
         H         H         1.0       0.7645410289997914  0.9070475669525403  0.8118929528030432 1.0000   
         H         H         1.0       0.7995201989637833  0.03914983263116137           0.8052033990797908 1.0000   
         H         H         1.0       0.8011244625913527  0.033150630647702524         0.756162004834283  1.0000   
         H         H         1.0       0.6587745395156351  0.9875284978461253  0.8439562959502804 1.0000   
         H         H         1.0       0.7138923205346063  0.9501445199196156  0.8468210468501484 1.0000   
         H         H         1.0       0.7600521013473646  0.07845239878908453           0.8362974856026364 1.0000   
         H         H         1.0       0.7101102778198846  0.11633237072121745           0.8339488635914347 1.0000   
         H         H         1.0       0.8381005269560009  0.013585245957472791         0.8320225069122036 1.0000   
         H         H         1.0       0.8710975798816238  0.06881879708983676           0.8538482568892204 1.0000   
         H         H         1.0       0.7979003938950407  0.09173125714154573           0.913633315775489  1.0000   
         H         H         1.0       0.7671052681990833  0.03401142431468518           0.8935000096347071 1.0000   
         H         H         1.0       0.7407951930925897  0.9520811174165398  0.8842575691436106 1.0000   
         H         H         1.0       0.7566167232771958  0.9079236759261028  0.9201799117678237 1.0000   
         H         H         1.0       0.849246248373758   0.894126921600324   0.8847764554929228 1.0000   
         H         H         1.0       0.8324274623296907  0.9354638934424019  0.8458709564503892 1.0000   
         C         C         1.0       0.8071400332901355  0.8898137864520446  0.0514793893861198 1.0000   
         C         C         1.0       0.8219945981298321  0.9278683231670726  0.06362152154063387          1.0000   
         C         C         1.0       0.8552055898534683  0.938114724992122   0.05868951717020424          1.0000   
         C         C         1.0       0.870869412621624   0.9108438749332599  0.03907393905038255          1.0000   
         C         C         1.0       0.855589143628645   0.8737127081570655  0.028109514104579892         1.0000   
         C         C         1.0       0.8237647384490554  0.8625844633041656  0.033746179119576024         1.0000   
         H         H         1.0       0.810319359038144   0.9528642543941933  0.07815998265786442          1.0000   
         H         H         1.0       0.8661061477693048  0.9649281289600912  0.07047533744785603          1.0000   
         H         H         1.0       0.8686975650437867  0.8520554239032442  0.013673081405587206         1.0000   
         H         H         1.0       0.8110280596632148  0.8351338437536371  0.025297089800857916         1.0000   
         C         C         1.0       0.9356556695796701  0.8946253294473769  0.0768566760058821 1.0000   
         C         C         1.0       0.9267261865821348  0.8836835750526049  0.05028038863123939          1.0000   
         C         C         1.0       0.9288770930277724  0.8381293193741332  0.04334747774556553          1.0000   
         C         C         1.0       0.9398721977396801  0.8064320105220385  0.05984952837407755          1.0000   
         C         C         1.0       0.9506941083977923  0.8180309868110943  0.08597715475672325          1.0000   
         C         C         1.0       0.9491608867956435  0.8631807723808654  0.09435149382920484          1.0000   
         C         C         1.0       0.9088075132482857  0.920456159219218   0.03230244676745027          1.0000   
         C         C         1.0       0.9197462355047118  0.971859963101628   0.03435528501104524          1.0000   
         C         C         1.0       0.902280475878092   0.008798688635173413         0.02554614558193584          1.0000   
         C         C         1.0       0.9154351931536797  0.05064073828402265           0.023811367878214394         1.0000   
         C         C         1.0       0.9473428947651129  0.05835680325974614           0.03172773684631881          1.0000   
         C         C         1.0       0.9662626809378643  0.02349699155842089           0.03970293578854159          1.0000   
         C         C         1.0       0.9519793350301043  0.9810281983527183  0.04028112270161278          1.0000   
         C         C         1.0       0.9491031330588313  0.9024660042361582  0.9924287849270207 1.0000   
         C         C         1.0       0.959003608968844   0.9098495296061583  0.9655432226347564 1.0000   
         C         C         1.0       0.9390087461971092  0.94063807283268    0.9504479050207956 1.0000   
         C         C         1.0       0.9057061532464198  0.941400692336216   0.9564051047401155 1.0000   
         C         C         1.0       0.8961036292828737  0.9286517668025022  0.9814195583179864 1.0000   
         C         C         1.0       0.9180363319555799  0.9134607167830683  0.0007946554082969293        1.0000   
         C         C         1.0       0.9549341097060661  0.9671269450997481  0.9262777991588262 1.0000   
         C         C         1.0       0.5553583345993489  0.09605410835114278           0.9097077717363307 1.0000   
         C         C         1.0       0.5427484345839946  0.07564009788504596           0.9327364960512065 1.0000   
         C         C         1.0       0.9961196118840686  0.0025458071328827683        0.9600783980640837 1.0000   
         C         C         1.0       0.9897251212890843  0.9865408313705031  0.9346586390787142 1.0000   
         C         C         1.0       0.5166990318990313  0.053542720047693226         0.8826053137010499 1.0000   
         C         C         1.0       0.54047743040987    0.08395851321691976           0.8844816372712454 1.0000   
         C         C         1.0       0.9387218620381962  0.01310808663264451           0.9188378551565425 1.0000   
         C         C         1.0       0.9242319340391277  0.04139333138418333           0.9374084309494045 1.0000   
         C         C         1.0       0.9107206376033141  0.08174192803963233           0.9305517448850772 1.0000   
         C         C         1.0       0.9102784056088136  0.09416560422378137           0.9036492054051989 1.0000   
         C         C         1.0       0.9250559330525077  0.06679344147378022           0.8841810022794294 1.0000   
         C         C         1.0       0.9390490653672693  0.027216779694886565         0.8918875932140811 1.0000   
         C         C         1.0       0.9244212606587179  0.9233727483283551  0.8872350317208875 1.0000   
         C         C         1.0       0.9168564992779668  0.8858974229530315  0.8729528563939815 1.0000   
         C         C         1.0       0.9392913280450326  0.8522650260902304  0.8709179836514506 1.0000   
         C         C         1.0       0.9694265501160828  0.858870173631446   0.8829194204914866 1.0000   
         C         C         1.0       0.9751419158108015  0.8942939602973536  0.9012515002339132 1.0000   
         C         C         1.0       0.9515960032090779  0.9274465099112799  0.9033278187208301 1.0000   
         H         H         1.0       0.9308738726532124  0.9290287274788204  0.08549117878578519          1.0000   
         H         H         1.0       0.922316827742523   0.8225034123041697  0.02381831187856679          1.0000   
         H         H         1.0       0.9385659128096339  0.7735344453106615  0.051557170402710815         1.0000   
         H         H         1.0       0.9506441831143182  0.8725579384916587  0.11511942645064928          1.0000   
         H         H         1.0       0.8775388086301334  0.007055196677698383         0.02125740663964741          1.0000   
         H         H         1.0       0.9003164858604769  0.0794638407415171  0.022289420888551226         1.0000   
         H         H         1.0       0.9923350529832562  0.027299272462707247         0.04451990140333244          1.0000   
         H         H         1.0       0.9688908578188468  0.9547856452336809  0.04523989657473628          1.0000   
         H         H         1.0       0.9661112713921645  0.8875760153762524  0.006364651988110648         1.0000   
         H         H         1.0       0.9852077843728939  0.908073602670758   0.9635298343996215 1.0000   
         H         H         1.0       0.8891059308743645  0.9609269034038821  0.9424642424054553 1.0000   
         H         H         1.0       0.8702364480222847  0.9365459845206414  0.9865453680994172 1.0000   
         H         H         1.0       0.5527925862633741  0.08444045871672097           0.9519013487833143 1.0000   
         H         H         1.0       0.978875236985866   0.9967477342455329  0.9758215686722613 1.0000   
         H         H         1.0       0.5051271119226666  0.049801495825010145         0.8611556105362949 1.0000   
         H         H         1.0       0.5488917057313129  0.09911000959312853           0.8672570630530919 1.0000   
         H         H         1.0       0.9216421799939281  0.036003083565402515         0.9593064554462565 1.0000   
         H         H         1.0       0.8972957893806507  0.10103030985634576           0.9464834341368943 1.0000   
         H         H         1.0       0.9280116066697524  0.07636256854062855           0.8621828452580105 1.0000   
         H         H         1.0       0.948847808848225   0.007069227043855264         0.8757323768387367 1.0000   
         H         H         1.0       0.9042756580797374  0.9465680695131156  0.8907808331688012 1.0000   
         H         H         1.0       0.8920266015054952  0.8786196049529892  0.8657344548834627 1.0000   
         H         H         1.0       0.9854435470492601  0.8312644488576674  0.8825342929995147 1.0000   
         H         H         1.0       0.9975965034607646  0.8978362549216354  0.9128498408361903 1.0000   
         C         C         1.0       0.6292034418233609  0.06945553820845413           0.9228456609366212 1.0000   
         C         C         1.0       0.6187074980438079  0.027455558801009472         0.9152595289672056 1.0000   
         C         C         1.0       0.631330186415406   0.9891598915507304  0.9270728302587329 1.0000   
         C         C         1.0       0.6578968482306624  0.9934248104753731  0.9453049303091083 1.0000   
         C         C         1.0       0.6668651035946791  0.036490952827332945         0.9548208018710654 1.0000   
         C         C         1.0       0.6522131705052148  0.07437966998451154           0.942759838802782  1.0000   
         H         H         1.0       0.5991365007472061  0.023148584781065962         0.9003307169422484 1.0000   
         H         H         1.0       0.6210508525505768  0.9566745404130086  0.9199022736523085 1.0000   
         H         H         1.0       0.6907139943951552  0.045418248925315874         0.9646023499501103 1.0000   
         H         H         1.0       0.6587161445332492  0.1084930973237649  0.947674347746269  1.0000   
         C         C         1.0       0.7347212765954632  0.9813456685391609  0.9495767859839708 1.0000   
         C         C         1.0       0.7123167181890505  0.9529618597244187  0.9639023005368912 1.0000   
         C         C         1.0       0.7270539423075381  0.9232480185232593  0.9840486761621837 1.0000   
         C         C         1.0       0.7593002872702633  0.9156440831757422  0.9823054641097713 1.0000   
         C         C         1.0       0.7807682148051275  0.9405762671611761  0.9658742703978722 1.0000   
         C         C         1.0       0.7682399442537811  0.9739754610095521  0.9515265762344384 1.0000   
         C         C         1.0       0.6748575912745498  0.9477804517496972  0.9554650280878219 1.0000   
         C         C         1.0       0.6786342354395919  0.909431890572664   0.93192092406157   1.0000   
         C         C         1.0       0.6826197448834291  0.8653504793623525  0.9382049310240963 1.0000   
         C         C         1.0       0.6903058377593538  0.8324822524676453  0.9187492713292318 1.0000   
         C         C         1.0       0.6905308380198651  0.8437972144743815  0.8920164022790495 1.0000   
         C         C         1.0       0.6875902254716243  0.8878825070251549  0.8848257370427612 1.0000   
         C         C         1.0       0.6827572237251475  0.9209523025015356  0.9046270751941853 1.0000   
         C         C         1.0       0.655665799158767   0.960498031638477   0.005663590521137296         1.0000   
         C         C         1.0       0.6416535595182282  0.9459458273440781  0.02887339335880625          1.0000   
         C         C         1.0       0.6237743582774203  0.9055194469672074  0.0288758775268935 1.0000   
         C         C         1.0       0.6184969117728343  0.8846954136870868  0.00546770770684768          1.0000   
         C         C         1.0       0.632265764068403   0.8983234113506746  0.9817151751045473 1.0000   
         C         C         1.0       0.6541958914969268  0.9350431167307017  0.9822775314427816 1.0000   
         C         C         1.0       0.6165046997826604  0.8807001602447205  0.05732474137196461          1.0000   
         C         C         1.0       0.7200071056156392  0.8648046653347782  0.07679344639414443          1.0000   
         C         C         1.0       0.7015770687010525  0.8938690777566171  0.09160702004623583          1.0000   
         C         C         1.0       0.670004074445528   0.8996876921203245  0.08529712848930002          1.0000   
         C         C         1.0       0.6523548273327259  0.8712048387553906  0.06747440990483121          1.0000   
         C         C         1.0       0.6724756491466174  0.838388052026341   0.05438790553324902          1.0000   
         C         C         1.0       0.7049111992412598  0.8354495088046312  0.05855386986453127          1.0000   
         C         C         1.0       0.5967574628771283  0.8362195920279236  0.05945596119768962          1.0000   
         C         C         1.0       0.5713281174070917  0.8267322245175933  0.04153208463941127          1.0000   
         C         C         1.0       0.5518249462579203  0.7905408187666295  0.043543392091984566         1.0000   
         C         C         1.0       0.5569285201416285  0.7626861865388419  0.06420857709380885          1.0000   
         C         C         1.0       0.5814906355441616  0.7697242925287305  0.08333866160757085          1.0000   
         C         C         1.0       0.6004720188882549  0.8075590050599482  0.08087417331951968          1.0000   
         C         C         1.0       0.5969431222414432  0.9102464817571133  0.10436190402584448          1.0000   
         C         C         1.0       0.5835047500913936  0.9438859262040284  0.12125550215980037          1.0000   
         C         C         1.0       0.568743064386567   0.9817237930030597  0.10992559302192506          1.0000   
         C         C         1.0       0.5618214897394647  0.9822395454461839  0.0817054225923016 1.0000   
         C         C         1.0       0.5735042736533074  0.9464522898314298  0.06522572126480848          1.0000   
         C         C         1.0       0.5953594812228575  0.9145770481000914  0.07563708946512367          1.0000   
         H         H         1.0       0.7270186487863669  0.004037964684946438         0.9344469097721487 1.0000   
         H         H         1.0       0.7127636600020166  0.901398182361318   0.9985768781937994 1.0000   
         H         H         1.0       0.7684034484875578  0.8869301178728922  0.9938419337544071 1.0000   
         H         H         1.0       0.7859057731620405  0.9934396073528484  0.9397085391272815 1.0000   
         H         H         1.0       0.6833897927646809  0.8556257070861574  0.9599463844950128 1.0000   
         H         H         1.0       0.6979729714500096  0.7987468175142404  0.923007183585022  1.0000   
         H         H         1.0       0.6889694620920089  0.8970025008623819  0.8634344824510769 1.0000   
         H         H         1.0       0.6792428829296427  0.9567120214101683  0.8992878477812123 1.0000   
         H         H         1.0       0.6720430548326541  0.9902123879960409  0.007504171931381309         1.0000   
         H         H         1.0       0.6476153480499666  0.96361205753043    0.04671955244132582          1.0000   
         H         H         1.0       0.6045586104397391  0.8546838684320878  0.0028433612838594247        1.0000   
         H         H         1.0       0.6266469704780406  0.8820996851760994  0.9627068476065502 1.0000   
         H         H         1.0       0.7141493617637759  0.9198673291859835  0.1044742011860057 1.0000   
         H         H         1.0       0.6584487247213341  0.9271508422751878  0.09740326503659194          1.0000   
         H         H         1.0       0.663446628050698   0.8196383330225292  0.037114237383594775         1.0000   
         H         H         1.0       0.718320476334171   0.8128498029710582  0.04567860307031687          1.0000   
         H         H         1.0       0.5635486825191717  0.8537649867966313  0.028227681499262813         1.0000   
         H         H         1.0       0.5337497748496494  0.7817280842238064  0.027817128955503742         1.0000   
         H         H         1.0       0.5814222714888166  0.7474197871347001  0.1007622483928361 1.0000   
         H         H         1.0       0.6193175033766721  0.8120252918580135  0.09677656479336418          1.0000   
         H         H         1.0       0.611222545005184   0.8828444021943411  0.11535819751232569          1.0000   
         H         H         1.0       0.5889359146118739  0.9388048779630347  0.1426541347691864 1.0000   
         H         H         1.0       0.5495155407748514  0.008548525434585175         0.0726086207854555 1.0000   
         H         H         1.0       0.5683045135253253  0.9475379632342106  0.04211346791757483          1.0000   
         C         C         1.0       0.6234017406927379  0.0323529966159557  0.7945512279121374 1.0000   
         C         C         1.0       0.6042387726390288  0.007669365698595776         0.8111498970392651 1.0000   
         C         C         1.0       0.5957529461718114  0.963183356960959   0.8045728351424174 1.0000   
         C         C         1.0       0.6048316396197503  0.9431251009504458  0.7800119642521625 1.0000   
         C         C         1.0       0.6269353032380941  0.9657876578044038  0.7645462926548837 1.0000   
         C         C         1.0       0.6319785720176546  0.010438133863058141         0.7694729381333077 1.0000   
         H         H         1.0       0.6010475978672116  0.020787741738653942         0.8318085846754488 1.0000   
         H         H         1.0       0.5807005730903316  0.9460458081808165  0.8183696929837556 1.0000   
         H         H         1.0       0.6395380925441722  0.9477519237252857  0.7481683300118053 1.0000   
         H         H         1.0       0.6505851555080275  0.025582414787815422         0.7566389790146429 1.0000   
         C         C         1.0       0.5365465902809823  0.9071023727149711  0.772330770076094  1.0000   
         C         C         1.0       0.5613718817333413  0.8784699167751078  0.7802787516829149 1.0000   
         C         C         1.0       0.5512485393150623  0.8374395817941709  0.7894045218434079 1.0000   
         C         C         1.0       0.520038448775315   0.8285877254186705  0.7928872155401692 1.0000   
         C         C         1.0       0.9571010183288564  0.8096001512855041  0.8119490742552518 1.0000   
         C         C         1.0       0.9656681268513397  0.8510485879037326  0.802232866458774  1.0000   
         C         C         1.0       0.5986270536733678  0.8928998918361807  0.7739686487595556 1.0000   
         C         C         1.0       0.6266734521531747  0.8692384980051708  0.7915377735543279 1.0000   
         C         C         1.0       0.6587134591567164  0.8651213398148317  0.7813132982341645 1.0000   
         C         C         1.0       0.682262696618254   0.8450436390490145  0.7969412237523873 1.0000   
         C         C         1.0       0.674015738604291   0.8311604001909536  0.8239761060792361 1.0000   
         C         C         1.0       0.6436614542703563  0.8399017631122839  0.833444584008738  1.0000   
         C         C         1.0       0.6208041793650868  0.85990813034624    0.8177614191729896 1.0000   
         C         C         1.0       0.5876313691339792  0.8945148089134612  0.7217754629503739 1.0000   
         C         C         1.0       0.5771261877614215  0.8731040290685552  0.698167315536182  1.0000   
         C         C         1.0       0.5741886655360052  0.8250621958966177  0.6985174915340879 1.0000   
         C         C         1.0       0.5915881371209174  0.8044764147049377  0.7192280667659583 1.0000   
         C         C         1.0       0.6062393515938371  0.8283553525510017  0.7395818734011185 1.0000   
         C         C         1.0       0.6001013597097475  0.8734491793674033  0.7441831855154664 1.0000   
         C         C         1.0       0.5519483452728503  0.796902010817325   0.6786771171465973 1.0000   
         C         C         1.0       0.9351922598070679  0.819338365395019   0.6835924336249473 1.0000   
         C         C         1.0       0.9539070630010238  0.8452455598189923  0.6666571738712114 1.0000   
         C         C         1.0       0.9859990372547051  0.8343752892428679  0.6617163171146723 1.0000   
         C         C         1.0       0.9993319570354472  0.7971849914846204  0.6735915248917183 1.0000   
         C         C         1.0       0.9800474630191595  0.7704623748639797  0.6894576544934699 1.0000   
         C         C         1.0       0.9488847678783985  0.7834227376508571  0.6949088348485178 1.0000   
         C         C         1.0       0.5607058803754669  0.7453220240320236  0.6741003411017051 1.0000   
         C         C         1.0       0.5922276468515123  0.7329189833526712  0.6694969368987226 1.0000   
         C         C         1.0       0.601368181295545   0.6888125340962593  0.6671038333793979 1.0000   
         C         C         1.0       0.5780275744711099  0.6558413342885574  0.6674815109330454 1.0000   
         C         C         1.0       0.5465791592505191  0.6666625365052506  0.6723640771653775 1.0000   
         C         C         1.0       0.5379354684239464  0.7122849248472384  0.6741902723175285 1.0000   
         C         C         1.0       0.5256811166182362  0.7866574813560301  0.6285451614223512 1.0000   
         C         C         1.0       0.5225349798183225  0.7946927397591721  0.6011859613242213 1.0000   
         C         C         1.0       0.5469989445141519  0.8165945553889992  0.5885836410593247 1.0000   
         C         C         1.0       0.5739304901759259  0.8341995840148061  0.6028366287135694 1.0000   
         C         C         1.0       0.574242318102685   0.8291622594472603  0.630726575657322  1.0000   
         C         C         1.0       0.5504700803922128  0.8064291422300394  0.6448039755299114 1.0000   
         H         H         1.0       0.5423457142053848  0.9403088912714844  0.7644238358527942 1.0000   
         H         H         1.0       0.5676396962617613  0.8118326182753194  0.7948496901789321 1.0000   
         H         H         1.0       0.9727201238180744  0.7494757563881338  0.8273592025216547 1.0000   
         H         H         1.0       0.950722634654083   0.8806149097118112  0.8022568610879512 1.0000   
         H         H         1.0       0.664775041025212   0.877790570259344   0.7608004691136755 1.0000   
         H         H         1.0       0.7055070503589574  0.8375090798476252  0.7865155721137631 1.0000   
         H         H         1.0       0.6375508183029991  0.8247488011199946  0.8534455975123221 1.0000   
         H         H         1.0       0.5979804765547898  0.8632736337140685  0.8267718039962642 1.0000   
         H         H         1.0       0.5838854695360189  0.9309594598451059  0.7229645882129951 1.0000   
         H         H         1.0       0.5656625259790599  0.8898639864155644  0.6803997519331973 1.0000   
         H         H         1.0       0.5959214498331018  0.7688267425835638  0.7201687000695723 1.0000   
         H         H         1.0       0.6154599461080151  0.8070290179473847  0.7548040816282259 1.0000   
         H         H         1.0       0.9441942603484174  0.8741099634332857  0.6576148208058323 1.0000   
         H         H         1.0       0.5086902832232431  0.8696298640139395  0.6636810606239698 1.0000   
         H         H         1.0       0.9885230623287861  0.7405007755667475  0.699386275640428  1.0000   
         H         H         1.0       0.9335827580559078  0.7680310981194565  0.7100065442838285 1.0000   
         H         H         1.0       0.6096554303843017  0.7605212597400258  0.6683416076695393 1.0000   
         H         H         1.0       0.6268268218073557  0.6811543327696086  0.6663179524481166 1.0000   
         H         H         1.0       0.5288400780309992  0.6398534772467556  0.6744256611128258 1.0000   
         H         H         1.0       0.5135645389066671  0.7180045084249939  0.678380774193304  1.0000   
         H         H         1.0       0.5084224808529663  0.766561446628059   0.6386664875711747 1.0000   
         H         H         1.0       0.5030352625493644  0.7779860628213298  0.5895831166902871 1.0000   
         H         H         1.0       0.5944278228163208  0.8489117253705412  0.5946892148042379 1.0000   
         H         H         1.0       0.5946601620519995  0.8430116411137175  0.6422731754471571 1.0000   
         C         C         1.0       0.5347484228996242  0.38056040298558036           0.5139266042055934 1.0000   
         C         C         1.0       0.5464668499006443  0.41794177114857584           0.5289786301154058 1.0000   
         C         C         1.0       0.5731579347473847  0.44063265328732415           0.5201774359554296 1.0000   
         C         C         1.0       0.5875518012905524  0.43149774060278073           0.49593310697863413          1.0000   
         C         C         1.0       0.5758786798004315  0.39641705418849715           0.4799535952097806 1.0000   
         C         C         1.0       0.5503287117726511  0.37089166723505523           0.4883817552797248 1.0000   
         H         H         1.0       0.5357850632473754  0.4276614788753816  0.5488498766848229 1.0000   
         H         H         1.0       0.5821732358374793  0.46908225669407294           0.5333541538523889 1.0000   
         H         H         1.0       0.5844028330085228  0.3856107801342126  0.4594186225614101 1.0000   
         H         H         1.0       0.5429971408313179  0.34450859489479724           0.474489240966555  1.0000   
         C         C         1.0       0.6593689022117698  0.44393586337752816           0.5272389452814176 1.0000   
         C         C         1.0       0.6427842043017804  0.42451833063862326           0.5051062118084546 1.0000   
         C         C         1.0       0.6511784435838568  0.380869980454543   0.4974833917009264 1.0000   
         C         C         1.0       0.6760361141366339  0.3591383034454947  0.5106671086923302 1.0000   
         C         C         1.0       0.6892647304501274  0.3785762597010236  0.5341192868861921 1.0000   
         C         C         1.0       0.681439664487605   0.42124316152419994           0.542641486084554  1.0000   
         C         C         1.0       0.6187976351245756  0.456919558842742   0.488587903880107  1.0000   
         C         C         1.0       0.6194342444396694  0.5103725775431474  0.49263296111882665          1.0000   
         C         C         1.0       0.6482068866241881  0.5348303189055936  0.49353431954722193          1.0000   
         C         C         1.0       0.6482052493697625  0.5810681836645749  0.49624712558048995          1.0000   
         C         C         1.0       0.6193989144137231  0.6045431117582423  0.4967097998787179 1.0000   
         C         C         1.0       0.5913384292269845  0.5811717820741797  0.49403306418969417          1.0000   
         C         C         1.0       0.5908385028204876  0.5356694311679738  0.4925527432118966 1.0000   
         C         C         1.0       0.6025782541800121  0.46924638590569173           0.4385414330896527 1.0000   
         C         C         1.0       0.6092344928383343  0.48040090180737616           0.41173010242563746          1.0000   
         C         C         1.0       0.6399043481673876  0.4728864992923798  0.4016830369529288 1.0000   
         C         C         1.0       0.6613486702354605  0.45017150628012864           0.41775805715684233          1.0000   
         C         C         1.0       0.6545369739796897  0.44279928244012345           0.4445546626776976 1.0000   
         C         C         1.0       0.6255254383225455  0.4561397667970262  0.4561743582985088 1.0000   
         C         C         1.0       0.6513591667988742  0.49199194424061427           0.37386016844710374          1.0000   
         C         C         1.0       0.7565925018406174  0.503264624903879   0.36626976739225514          1.0000   
         C         C         1.0       0.7401929447543328  0.5236864004533267  0.3876867216775822 1.0000   
         C         C         1.0       0.707656654138358   0.5186003583942834  0.390427041395666  1.0000   
         C         C         1.0       0.6901945240845638  0.49532275465252396           0.3700618292441766 1.0000   
         C         C         1.0       0.7068545978850694  0.4818617155225778  0.34669765019924986          1.0000   
         C         C         1.0       0.7396806694291619  0.48522635813341164           0.34457680891397185          1.0000   
         C         C         1.0       0.6411444108419831  0.5444038872957523  0.37024144685441684          1.0000   
         C         C         1.0       0.633690927802965   0.5607229888554079  0.34459044361469743          1.0000   
         C         C         1.0       0.6160947176230488  0.5986486788734477  0.3418363158917345 1.0000   
         C         C         1.0       0.6066051417118091  0.6223807821139363  0.36483601284912687          1.0000   
         C         C         1.0       0.6184040134905094  0.6131164628638035  0.3904870964776944 1.0000   
         C         C         1.0       0.6368249693606226  0.5744396665244319  0.3931424758420004 1.0000   
         C         C         1.0       0.6058930678302082  0.4620066949189214  0.3415563730014497 1.0000   
         C         C         1.0       0.5900837687282601  0.4300802305580103  0.3261231371157279 1.0000   
         C         C         1.0       0.6029197572404259  0.38978032007403307           0.320315691395061  1.0000   
         C         C         1.0       0.632005247518308   0.37961555981647693           0.3326198142787346 1.0000   
         C         C         1.0       0.647232464784748   0.4101062292709916  0.3502195177835498 1.0000   
         C         C         1.0       0.6348701100456987  0.4526939883838878  0.35443559309664835          1.0000   
         H         H         1.0       0.6510388066200866  0.4795154039540951  0.533498778429631  1.0000   
         H         H         1.0       0.639078220803068   0.3657940884902626  0.4808343593849036 1.0000   
         H         H         1.0       0.6800763646180238  0.32478838111504005           0.5034000143850718 1.0000   
         H         H         1.0       0.694082151784706   0.44057279053798015           0.559943944657295  1.0000   
         H         H         1.0       0.670103441779579   0.5156245770052805  0.48829391581699116          1.0000   
         H         H         1.0       0.6714914909403927  0.5990523003638923  0.4965002614742516 1.0000   
         H         H         1.0       0.5697918820152977  0.599031365392611   0.49619910739212286          1.0000   
         H         H         1.0       0.5673012445142668  0.5229725985692596  0.48854349722778323          1.0000   
         H         H         1.0       0.5778138109178376  0.475760586672104   0.44349844402358474          1.0000   
         H         H         1.0       0.5896970386486124  0.49413707199426665           0.39961227765287544          1.0000   
         H         H         1.0       0.6847243334334391  0.43731961303841627           0.4085575065017457 1.0000   
         H         H         1.0       0.6746316799371983  0.4255382574206504  0.45484886290211457          1.0000   
         H         H         1.0       0.7537041462618128  0.5397698311297711  0.4029929597885911 1.0000   
         H         H         1.0       0.6930726680511954  0.533833236851379   0.4071957726298776 1.0000   
         H         H         1.0       0.6956942756345424  0.4624691174124146  0.33149817441083995          1.0000   
         H         H         1.0       0.7520933750969873  0.4746128150534753  0.32577419962853277          1.0000   
         H         H         1.0       0.6382718131574162  0.5374462832731534  0.3268296153872406 1.0000   
         H         H         1.0       0.6102933818423921  0.609063800273712   0.32105103208659574          1.0000   
         H         H         1.0       0.6143177521864113  0.638665509552044   0.40596658492002935          1.0000   
         H         H         1.0       0.6448539472341575  0.5658072492907064  0.41302741296504736          1.0000   
         H         H         1.0       0.5942415959954106  0.49421377482392326           0.3460652720349063 1.0000   
         H         H         1.0       0.5674541911338677  0.43778722121373215           0.31667455647695214          1.0000   
         H         H         1.0       0.6460101622724196  0.34803543893921857           0.3278617101360568 1.0000   
         H         H         1.0       0.6702606169087962  0.399253241712018   0.3587149452269128 1.0000   
         C         C         1.0       0.6133236369934248  0.4371990919751694  0.15584298986036105          1.0000   
         C         C         1.0       0.6155289384385594  0.4566114390300732  0.18164147839791497          1.0000   
         C         C         1.0       0.5896844938920922  0.4757152804623967  0.19568598386052524          1.0000   
         C         C         1.0       0.5591251849239983  0.47794830754648043           0.18298336460555345          1.0000   
         C         C         1.0       0.558153743668239   0.4601336160672631  0.156285562454577  1.0000   
         C         C         1.0       0.5846362661174781  0.4450028547953881  0.14231234066039403          1.0000   
         H         H         1.0       0.6399769752760286  0.4578824668006723  0.19046888829176195          1.0000   
         H         H         1.0       0.5946588083684896  0.48803511576822267           0.2167285596210411 1.0000   
         H         H         1.0       0.5364640975911076  0.4631841564705717  0.14441804414032677          1.0000   
         H         H         1.0       0.5798901661046583  0.4406144779397441  0.12126726167455233          1.0000   
         C         C         1.0       8.790863103458335e-06         0.4467692602222116 0.18975828082653276          1.0000   
         C         C         1.0       0.008153928924335307          0.49244217013613417          0.18971452813812342          1.0000   
         C         C         1.0       0.9838397203562099  0.522293925974785   0.18237369214715843          1.0000   
         C         C         1.0       0.9559013724678617  0.5071526140781994  0.1711957389286489 1.0000   
         C         C         1.0       0.9505180123263851  0.461811539384596   0.16728483376434697          1.0000   
         C         C         1.0       0.9713085435782407  0.4317376976445025  0.17916194021568774          1.0000   
         C         C         1.0       0.5309397981040136  0.5062397898112998  0.19764599782959022          1.0000   
         C         C         1.0       0.534943177592483   0.5536481273341541  0.18181513907627092          1.0000   
         C         C         1.0       0.553034897071408   0.5872874348414324  0.1942118467756222 1.0000   
         C         C         1.0       0.5549347270945438  0.6279289540496873  0.18330305676243266          1.0000   
         C         C         1.0       0.5391689430792407  0.636720730869933   0.15885684460056862          1.0000   
         C         C         1.0       0.5243764256693816  0.602659530791094   0.14476180923866583          1.0000   
         C         C         1.0       0.5228951999037305  0.5612415493076195  0.15554240182262252          1.0000   
         C         C         1.0       0.5099137948029123  0.5444380758325975  0.24243612044290108          1.0000   
         C         C         1.0       0.9905542536347473  0.5226104503701017  0.2676027425964355 1.0000   
         C         C         1.0       0.9981838555334215  0.48473834838040186           0.28149483873725933          1.0000   
         C         C         1.0       0.5246145510372384  0.47017225686102543           0.2728143480232293 1.0000   
         C         C         1.0       0.5361434309130269  0.4727986834770159  0.24567661640731236          1.0000   
         C         C         1.0       0.5269793510353361  0.5089741992496822  0.22949950840521008          1.0000   
         C         C         1.0       0.97480767306695    0.4699681804290438  0.305265571807563  1.0000   
         C         C         1.0       0.8721187757253108  0.46171496317101    0.2922275267425021 1.0000   
         C         C         1.0       0.8916133941187957  0.45693863764933196           0.26995364932114774          1.0000   
         C         C         1.0       0.9246171203027311  0.46409152039941093           0.27262514299359153          1.0000   
         C         C         1.0       0.9376958451310797  0.4709394968934755  0.2987447420711811 1.0000   
         C         C         1.0       0.9163624767378815  0.4748618865811967  0.3208673643051543 1.0000   
         C         C         1.0       0.8848472637146534  0.4700522217445338  0.3174633807760786 1.0000   
         C         C         1.0       0.9841441262820674  0.5066997182096357  0.32950659681754396          1.0000   
         C         C         1.0       0.9662662867077023  0.5460175648410429  0.33566737366999055          1.0000   
         C         C         1.0       0.9807305110014795  0.5794789092873318  0.3525024363026658 1.0000   
         C         C         1.0       0.526789938093343   0.6045408128735095  0.3587765949683212 1.0000   
         C         C         1.0       0.5408399631074874  0.5626951517742458  0.3576438600584218 1.0000   
         C         C         1.0       0.527574107545052   0.5261539228545457  0.3437027490393636 1.0000   
         C         C         1.0       0.974382332135037   0.40689116760259414           0.3416760954349627 1.0000   
         C         C         1.0       0.9766608137965055  0.3638067108166135  0.349203818274622  1.0000   
         C         C         1.0       0.9796786233551045  0.3301427204465075  0.328826745316212  1.0000   
         C         C         1.0       0.9780186491159191  0.3421135183305468  0.3019915809788551 1.0000   
         C         C         1.0       0.9789302824758992  0.3861992900030658  0.2954863093559853 1.0000   
         C         C         1.0       0.9780453090740319  0.41924583885532013           0.3151855486317446 1.0000   
         H         H         1.0       0.017659514213624883          0.4232099810562745 0.19482936610401252          1.0000   
         H         H         1.0       0.9875087227030034  0.5569445857829181  0.18290255379775422          1.0000   
         H         H         1.0       0.9389034967719593  0.5316644413817981  0.16276851627760616          1.0000   
         H         H         1.0       0.9693733650923857  0.39509209098775827           0.17726866832423332          1.0000   
         H         H         1.0       0.566082151629244   0.581206669117342   0.21222353432068441          1.0000   
         H         H         1.0       0.5687216469569356  0.6534357074994888  0.1936230284472428 1.0000   
         H         H         1.0       0.5113191358678865  0.6070299774067652  0.1263648501003135 1.0000   
         H         H         1.0       0.5116709085761504  0.5347953317877457  0.1431877437383245 1.0000   
         H         H         1.0       0.0010275753319675118         0.5658692060935703 0.2350311375249997 1.0000   
         H         H         1.0       0.9685769302558779  0.540269758893515   0.2748300728720991 1.0000   
         H         H         1.0       0.5307274625662637  0.4394577313540459  0.28246250556377606          1.0000   
         H         H         1.0       0.5436155814512498  0.44355942907128637           0.23417442563317534          1.0000   
         H         H         1.0       0.8811589808462438  0.4439646603304432  0.25153728295987826          1.0000   
         H         H         1.0       0.9409324850350458  0.4622806815726407  0.2546829708760074 1.0000   
         H         H         1.0       0.9248043932724486  0.47395239464484556           0.34226693196374963          1.0000   
         H         H         1.0       0.8689536591022649  0.476953174740156   0.3351577483022825 1.0000   
         H         H         1.0       0.944516020394248   0.5546341105411257  0.3242276009010468 1.0000   
         H         H         1.0       0.9643584246295126  0.6067912806680446  0.357620712955753  1.0000   
         H         H         1.0       0.561715187786118   0.5550628887599882  0.3702718937431103 1.0000   
         H         H         1.0       0.5380376185061365  0.49239864336905137           0.34846788822878966          1.0000   
         H         H         1.0       0.9735793899966801  0.43252473291459986           0.358702536469161  1.0000   
         H         H         1.0       0.9698699223947134  0.3578261003992343  0.3700609864482278 1.0000   
         H         H         1.0       0.9753127748559275  0.31813509921101024           0.28412476656523267          1.0000   
         H         H         1.0       0.9794089756524431  0.39261335534207686           0.274161961259618  1.0000   
         C         C         1.0       0.8027625835270985  0.37123922542602117           0.29332841409995525          1.0000   
         C         C         1.0       0.772673747627739   0.3773792728675034  0.30447205259147153          1.0000   
         C         C         1.0       0.7466929771653937  0.35455868623396825           0.29242322255708053          1.0000   
         C         C         1.0       0.7510792263705913  0.32486444674895154           0.26954159748431555          1.0000   
         C         C         1.0       0.7826185706804394  0.3176454384969787  0.2609950439221216 1.0000   
         C         C         1.0       0.8067718642157664  0.33978097149996983           0.2726056155826701 1.0000   
         H         H         1.0       0.7705274846715643  0.4006429923406483  0.3207469797467297 1.0000   
         H         H         1.0       0.7238685287074156  0.3597527056544046  0.30143654479228127          1.0000   
         H         H         1.0       0.7879427627027357  0.29296534420415177           0.24492853547918975          1.0000   
         H         H         1.0       0.832479816471516   0.33416358634800125           0.26809136522596333          1.0000   
         C         C         1.0       0.6818302662272847  0.3588165666135419  0.2551051100673988 1.0000   
         C         C         1.0       0.68761378430043    0.3119401715397991  0.2578769927149686 1.0000   
         C         C         1.0       0.6606088093040439  0.2832926956107706  0.25766682621950543          1.0000   
         C         C         1.0       0.6300856160477873  0.3003162074218142  0.26004011619558304          1.0000   
         C         C         1.0       0.6265205779919055  0.3471261147563197  0.26261278045645564          1.0000   
         C         C         1.0       0.6517914962843878  0.3768646911474077  0.2577436006780506 1.0000   
         C         C         1.0       0.722703713121521   0.2924238059496271  0.25680393307826255          1.0000   
         C         C         1.0       0.7253487637541317  0.25191730520323036           0.27691487750144267          1.0000   
         C         C         1.0       0.7456949483661007  0.2164589380635371  0.27327920598923755          1.0000   
         C         C         1.0       0.7480611086624519  0.18113014541492778           0.2921460991543531 1.0000   
         C         C         1.0       0.7308257684949521  0.18301843878626892           0.31659555641462617          1.0000   
         C         C         1.0       0.7118198407284125  0.22090670297733495           0.3215451570607612 1.0000   
         C         C         1.0       0.7099911692757909  0.2556540130238719  0.30330256811040956          1.0000   
         C         C         1.0       0.7319062455644331  0.3163688102080412  0.2086448738898647 1.0000   
         C         C         1.0       0.7390364476924969  0.30851763505733426           0.18182656218318885          1.0000   
         C         C         1.0       0.736930830297707   0.2648245179518776  0.170118973535817  1.0000   
         C         C         1.0       0.7254677621789231  0.23028616501495092           0.1858896887474557 1.0000   
         C         C         1.0       0.7205452230376861  0.23956729581762787           0.2133799320431972 1.0000   
         C         C         1.0       0.7263207158639231  0.2805453372026694  0.22589634769359898          1.0000   
         C         C         1.0       0.7471912636192182  0.2619344257521108  0.13911335371592404          1.0000   
         C         C         1.0       0.6612903637236048  0.34012742912214167           0.11775835159706935          1.0000   
         C         C         1.0       0.6917178253283405  0.3580916309113846  0.11258010893072153          1.0000   
         C         C         1.0       0.720014224811067   0.33369933176553257           0.11739474595507966          1.0000   
         C         C         1.0       0.7174645882647525  0.28947835664966914           0.12762988610382056          1.0000   
         C         C         1.0       0.686001813595504   0.2706374233831493  0.12798755204932175          1.0000   
         C         C         1.0       0.6577052213564804  0.29663214575037156           0.12381082269110116          1.0000   
         C         C         1.0       0.7503155266762356  0.2115898634562849  0.12576371759483368          1.0000   
         C         C         1.0       0.7664516770929092  0.1772554972348647  0.13887988108587468          1.0000   
         C         C         1.0       0.7772997790009747  0.13979747389962427           0.12428439664767124          1.0000   
         C         C         1.0       0.766668973695345   0.1301098282586648  0.09747547420048897          1.0000   
         C         C         1.0       0.7470756751551421  0.161492829418531   0.08532539888891558          1.0000   
         C         C         1.0       0.7382922918826902  0.20044091813597728           0.10002755322540949          1.0000   
         C         C         1.0       0.789810926494316   0.29494990238937197           0.1070632590657367 1.0000   
         C         C         1.0       0.8202989491997672  0.3123796845971961  0.1021493069826883 1.0000   
         C         C         1.0       0.8435615465250965  0.312177607256287   0.12144241951717225          1.0000   
         C         C         1.0       0.8367212741020177  0.2921462218015995  0.1458794615252122 1.0000   
         C         C         1.0       0.8060178895225741  0.27974097642211204           0.15231037874928452          1.0000   
         C         C         1.0       0.7820578461307928  0.28051713754144697           0.13281346903815633          1.0000   
         H         H         1.0       0.7026343080362972  0.3786282794713819  0.2503421875562077 1.0000   
         H         H         1.0       0.6631003318652617  0.24684654201362877           0.25543375815930663          1.0000   
         H         H         1.0       0.608015126191948   0.27976263905930443           0.26408640158019664          1.0000   
         H         H         1.0       0.647446760739103   0.41186540406450284           0.25542803323451546          1.0000   
         H         H         1.0       0.7580162434682299  0.21675437387241728           0.2545672670127451 1.0000   
         H         H         1.0       0.762300238141252   0.14954802693718136           0.28773014330180147          1.0000   
         H         H         1.0       0.6998809299175327  0.22627719290627257           0.340597198869482  1.0000   
         H         H         1.0       0.6959502879984698  0.2846269693575205  0.3095446691812406 1.0000   
         H         H         1.0       0.7385591137353409  0.3466889972346471  0.21794489341639134          1.0000   
         H         H         1.0       0.7482641416524708  0.33457909369327776           0.17088723014847396          1.0000   
         H         H         1.0       0.723628713697797   0.19452086513748473           0.1798747317316035 1.0000   
         H         H         1.0       0.7063317221197742  0.21616383564019012           0.22397223516109036          1.0000   
         H         H         1.0       0.6941133497654858  0.39166703739843206           0.10543751435719764          1.0000   
         H         H         1.0       0.7420313677906001  0.34933385608062706           0.11390276026580558          1.0000   
         H         H         1.0       0.6820255072557724  0.23466615795587614           0.13320271254933888          1.0000   
         H         H         1.0       0.6351226693694324  0.28255818558690343           0.12902679620219787          1.0000   
         H         H         1.0       0.7733453537951309  0.17956619192428772           0.1605457637792171 1.0000   
         H         H         1.0       0.7939974254603178  0.11558179770100613           0.13472004075671012          1.0000   
         H         H         1.0       0.7372514989730417  0.15656923070132006           0.06360649818414439          1.0000   
         H         H         1.0       0.7227876864466142  0.22261873840614374           0.09002767756063494          1.0000   
         H         H         1.0       0.7733488619133921  0.2972632306467517  0.09007346572061024          1.0000   
         H         H         1.0       0.8260325509212818  0.32574395885262797           0.08168907751518324          1.0000   
         H         H         1.0       0.8538546387711043  0.2925980521467844  0.16192449070577075          1.0000   
         H         H         1.0       0.801892029737306   0.2641718788971121  0.17195631910182116          1.0000   
         C         C         1.0       0.8171786830547901  0.42836253478106456           0.390822598745952  1.0000   
         C         C         1.0       0.7994178466664952  0.3982926333527207  0.374677495140993  1.0000   
         C         C         1.0       0.8041253012463949  0.35210703091350565           0.3768209039454278 1.0000   
         C         C         1.0       0.825666801053789   0.3331411988732009  0.39613563357522436          1.0000   
         C         C         1.0       0.8445637852633198  0.3663669269431516  0.40991841792336203          1.0000   
         C         C         1.0       0.838701511197145   0.4125175793310879  0.4102376064495196 1.0000   
         H         H         1.0       0.7811390908102652  0.40646040404025285           0.36027189284046396          1.0000   
         H         H         1.0       0.7895769534622622  0.3313423736303349  0.3648985205272069 1.0000   
         H         H         1.0       0.866035959416007   0.35648380121294215           0.4210507505204335 1.0000   
         H         H         1.0       0.8520424518861863  0.43638177684493107           0.421275655520092  1.0000   
         C         C         1.0       0.8671903495501636  0.2783175221154836  0.35423898452255287          1.0000   
         C         C         1.0       0.8677906346937003  0.2750253504067935  0.3824418143661699 1.0000   
         C         C         1.0       0.898462682603064   0.2729421764039764  0.39385469031546644          1.0000   
         C         C         1.0       0.9248412184726228  0.26521346722543    0.3777370347134354 1.0000   
         C         C         1.0       0.922463412449843   0.26573567013906463           0.3498560029977335 1.0000   
         C         C         1.0       0.8941789244478768  0.27388133222679156           0.33775464668921074          1.0000   
         C         C         1.0       0.8354975909992471  0.2812550924787358  0.3982165176024447 1.0000   
         C         C         1.0       0.807899219635957   0.24971642776159736           0.3867855667595139 1.0000   
         C         C         1.0       0.8125678564780747  0.2089156196783738  0.37090332751977506          1.0000   
         C         C         1.0       0.7893931439503873  0.1774352362260461  0.3671183110925635 1.0000   
         C         C         1.0       0.7590259315510282  0.18509481938002645           0.3765870405537473 1.0000   
         C         C         1.0       0.7522823796106621  0.22583215612185017           0.389821973243794  1.0000   
         C         C         1.0       0.775415973256789   0.2574058126319893  0.39490569718224033          1.0000   
         C         C         1.0       0.8282035011337269  0.2878797917366379  0.45141239604102806          1.0000   
         C         C         1.0       0.8368961498492253  0.2767160777954913  0.47734416653036166          1.0000   
         C         C         1.0       0.8527308490360441  0.23563227095922135           0.4824399453710569 1.0000   
         C         C         1.0       0.8591535217548253  0.20787994077586264           0.45997026085871806          1.0000   
         C         C         1.0       0.8535578605812559  0.22252190279297498           0.4339656685299185 1.0000   
         C         C         1.0       0.8399315591483336  0.2640969478439127  0.42847777534730896          1.0000   
         C         C         1.0       0.8645663931307495  0.22506669161879633           0.5122588697389369 1.0000   
         C         C         1.0       0.9506077562296513  0.30853168739314185           0.5025922859123576 1.0000   
         C         C         1.0       0.9239964892866277  0.3267344971808433  0.5156661768736082 1.0000   
         C         C         1.0       0.8986483730461939  0.2991113318819058  0.5187526138007438 1.0000   
         C         C         1.0       0.8974027655262292  0.2540997034570887  0.5094806284566848 1.0000   
         C         C         1.0       0.9255256252274008  0.23569020400666219           0.4977072943694755 1.0000   
         C         C         1.0       0.9509576061395562  0.26409236537864367           0.4929270307911645 1.0000   
         C         C         1.0       0.8675616316103899  0.17259670308524622           0.5195046333838174 1.0000   
         C         C         1.0       0.842820531478377   0.14098659003921588           0.512654793970614  1.0000   
         C         C         1.0       0.8434639929423563  0.09680519634211511           0.5212261491823627 1.0000   
         C         C         1.0       0.8632929808083122  0.08730139648241464           0.5416885043983012 1.0000   
         C         C         1.0       0.8873508079132705  0.11730681748212811           0.550039553058292  1.0000   
         C         C         1.0       0.8890719090907407  0.15748040976965855           0.5380766524145125 1.0000   
         C         C         1.0       0.8543092958433679  0.250201702213886   0.5633563101952478 1.0000   
         C         C         1.0       0.8349032687801281  0.25625868746272257           0.5862329432052347 1.0000   
         C         C         1.0       0.8015055937975719  0.2510892085209093  0.583425858874011  1.0000   
         C         C         1.0       0.7882846960186718  0.2473077734913419  0.5577258122643436 1.0000   
         C         C         1.0       0.8070957161866731  0.24200587984166375           0.5348306778372685 1.0000   
         C         C         1.0       0.8406312821919678  0.24070668896231787           0.5381958329264538 1.0000   
         H         H         1.0       0.8437358801554171  0.2781607234153378  0.3452433999066596 1.0000   
         H         H         1.0       0.9006353689608834  0.27185142670128604           0.4154634579634996 1.0000   
         H         H         1.0       0.9471373052033094  0.26938354234930123           0.38729855938658914          1.0000   
         H         H         1.0       0.8935166732924457  0.2799844774053275  0.3159338904848815 1.0000   
         H         H         1.0       0.837264370503701   0.19583778336205754           0.364469719105029  1.0000   
         H         H         1.0       0.795255844677402   0.14758260227634018           0.3546481797829815 1.0000   
         H         H         1.0       0.7292404526952685  0.23161701651664274           0.39923817748717444          1.0000   
         H         H         1.0       0.7665002504524902  0.2873031960571697  0.40594384250438426          1.0000   
         H         H         1.0       0.8126523227045355  0.31733841231182497           0.44935159019631177          1.0000   
         H         H         1.0       0.8329646633121313  0.30134948485064156           0.4928082908808647 1.0000   
         H         H         1.0       0.8713030650431061  0.17561503115466787           0.4605181066656814 1.0000   
         H         H         1.0       0.8633050348954796  0.20117822044907216           0.41760827304445597          1.0000   
         H         H         1.0       0.9246277765600632  0.3629196832151641  0.5221877266919512 1.0000   
         H         H         1.0       0.8767654315679253  0.31372148133263816           0.5273688548096175 1.0000   
         H         H         1.0       0.9262756031336945  0.20147382922348755           0.49016025530711305          1.0000   
         H         H         1.0       0.9737436217720912  0.2529803821624039  0.48208377037873074          1.0000   
         H         H         1.0       0.8246949372483529  0.1512319590898447  0.498666083317025  1.0000   
         H         H         1.0       0.8247352604370177  0.07272532081570326           0.5141309353097253 1.0000   
         H         H         1.0       0.9042533647281129  0.11251927602430098           0.5655835821600469 1.0000   
         H         H         1.0       0.9092754528880107  0.17686413312659194           0.5453169741654121 1.0000   
         H         H         1.0       0.879496433907977   0.24921847430232183           0.5671213887453568 1.0000   
         H         H         1.0       0.8458369613907659  0.25852874655127434           0.6055391063960008 1.0000   
         H         H         1.0       0.7624129331539706  0.24295397802345323           0.5535505579009088 1.0000   
         H         H         1.0       0.7971987285851265  0.22845975001352428           0.5160823003142785 1.0000   
         C         C         1.0       0.8441291446418651  0.7072837556582338  0.459799731865288  1.0000   
         C         C         1.0       0.8441862035749514  0.7389618211313739  0.4393458391438484 1.0000   
         C         C         1.0       0.81769765048379    0.7681547920961023  0.43637082163712904          1.0000   
         C         C         1.0       0.7912722632220756  0.7658748401201332  0.45429500525784844          1.0000   
         C         C         1.0       0.7923758016027459  0.7347202262394599  0.4747515792970545 1.0000   
         C         C         1.0       0.8185257813593803  0.7066706248463301  0.47726076385247856          1.0000   
         H         H         1.0       0.8637374390355256  0.7412426760842313  0.42400465525668   1.0000   
         H         H         1.0       0.8201665847182553  0.7921203275272287  0.4202851778759379 1.0000   
         H         H         1.0       0.7698502006428987  0.7267844058413143  0.4866295729558364 1.0000   
         H         H         1.0       0.8177877348168137  0.6856077482839233  0.49385802714813726          1.0000   
         C         C         1.0       0.7400441241891706  0.7262627296370666  0.4197271971197006 1.0000   
         C         C         1.0       0.7332474651084698  0.7638714950489367  0.43622753285597654          1.0000   
         C         C         1.0       0.7026004315141803  0.7812567160011011  0.4349153076384174 1.0000   
         C         C         1.0       0.6797418079506595  0.7629833240640189  0.41757576332047636          1.0000   
         C         C         1.0       0.6872709965185924  0.7282729591596737  0.40029356918245895          1.0000   
         C         C         1.0       0.7171787891483391  0.70993468068714    0.40218202262657243          1.0000   
         C         C         1.0       0.7593073038500027  0.7946190050703517  0.4501201444341659 1.0000   
         C         C         1.0       0.7618729604765264  0.8342447514202234  0.42716093842589414          1.0000   
         C         C         1.0       0.7536292977720394  0.8788677464236295  0.433689996138279  1.0000   
         C         C         1.0       0.7481786101400476  0.9088327689456732  0.41444322740588146          1.0000   
         C         C         1.0       0.748059888239014   0.8967791994641573  0.38812974321186994          1.0000   
         C         C         1.0       0.7577287739443581  0.8543360488259474  0.3803364630825174 1.0000   
         C         C         1.0       0.764048497657725   0.8233920661794986  0.3994124428224849 1.0000   
         C         C         1.0       0.7292941708663381  0.8113721445035834  0.49664057004035883          1.0000   
         C         C         1.0       0.7192977191403283  0.8456108079410769  0.5150262825354373 1.0000   
         C         C         1.0       0.738495065881053   0.8813229541478108  0.5221127277250562 1.0000   
         C         C         1.0       0.7692438936491883  0.8812698124994851  0.5092749207552812 1.0000   
         C         C         1.0       0.7786179201451658  0.8483078856321385  0.48971772903432015          1.0000   
         C         C         1.0       0.7556511626021488  0.817556839789507   0.47986945185703833          1.0000   
         C         C         1.0       0.726317559009843   0.9262311410798136  0.5401783452241574 1.0000   
         C         C         1.0       0.6789231438503884  0.9847070173743434  0.4698550680565036 1.0000   
         C         C         1.0       0.6602370648568565  0.9608907755320347  0.4880109937048591 1.0000   
         C         C         1.0       0.6747715909646785  0.9416437740243385  0.5107273304883555 1.0000   
         C         C         1.0       0.7078911194291724  0.9466448021362492  0.5157286283723813 1.0000   
         C         C         1.0       0.7249582883611645  0.9708813219634628  0.49700162637559914          1.0000   
         C         C         1.0       0.71034562835371    0.9907497271226147  0.47597407228412647          1.0000   
         C         C         1.0       0.7548789598897643  0.9566589936791141  0.5536146400958654 1.0000   
         C         C         1.0       0.7841313242132051  0.9385456619431133  0.5640535776163617 1.0000   
         C         C         1.0       0.8095044822251033  0.9655073872829794  0.571790016712256  1.0000   
         C         C         1.0       0.8060398204883589  0.011492677208628344         0.5710240137200834 1.0000   
         C         C         1.0       0.7776702670569408  0.029633259451164715         0.5633908552062867 1.0000   
         C         C         1.0       0.7525012690235715  0.00343716404479677           0.5555714486186375 1.0000   
         C         C         1.0       0.6860043669534063  0.9519797226568807  0.5755019983923899 1.0000   
         C         C         1.0       0.6682016993020591  0.9476145855542915  0.5990952584465241 1.0000   
         C         C         1.0       0.6696051422849719  0.9075692155867635  0.613081634722866  1.0000   
         C         C         1.0       0.6863959741692194  0.8723367706567241  0.601593485529525  1.0000   
         C         C         1.0       0.7037589203437288  0.8775974260687122  0.5789037570206502 1.0000   
         C         C         1.0       0.7052144692684764  0.9179471480283699  0.5658817016118949 1.0000   
         H         H         1.0       0.7645098310193315  0.7151621200498991  0.4178965180414936 1.0000   
         H         H         1.0       0.6976930460549985  0.8115092116568655  0.4460072399899711 1.0000   
         H         H         1.0       0.6557786470999303  0.7768509417383821  0.4167042831827852 1.0000   
         H         H         1.0       0.7250899279380822  0.6853762292862137  0.38775539838994866          1.0000   
         H         H         1.0       0.747348897872581   0.8913136616982311  0.45360597287317383          1.0000   
         H         H         1.0       0.7418933459505215  0.9432241066784366  0.4199640650796091 1.0000   
         H         H         1.0       0.757322259748848   0.8390884870999177  0.36049256133010665          1.0000   
         H         H         1.0       0.7675643886534046  0.7910894368483773  0.3924114991437195 1.0000   
         H         H         1.0       0.7118446000762759  0.7876857701620024  0.4879856214198389 1.0000   
         H         H         1.0       0.6957471183528046  0.8478204842675054  0.5243438494503329 1.0000   
         H         H         1.0       0.782356079179945   0.9128790230036232  0.5091128809764612 1.0000   
         H         H         1.0       0.8012205369956577  0.8532575047707845  0.47843915504183804          1.0000   
         H         H         1.0       0.6361826207384623  0.9540405407464951  0.48189221875881605          1.0000   
         H         H         1.0       0.6621550661671636  0.921609004892366   0.5250602803135783 1.0000   
         H         H         1.0       0.7509071000582545  0.9756186278310753  0.4993847268137854 1.0000   
         H         H         1.0       0.7270777072366688  0.006968833682157616         0.46246823733851644          1.0000   
         H         H         1.0       0.7863334720637907  0.9029744834361823  0.5640459517642955 1.0000   
         H         H         1.0       0.8316174515640358  0.9513205330377928  0.5790887415873904 1.0000   
         H         H         1.0       0.776484957515898   0.06523812140009386           0.5616721487090611 1.0000   
         H         H         1.0       0.7297636915365926  0.01878990002145975           0.5505412621766528 1.0000   
         H         H         1.0       0.6884085085971554  0.9864892470419231  0.5674431951472406 1.0000   
         H         H         1.0       0.6562835531070086  0.9771807702826462  0.6077262960735947 1.0000   
         H         H         1.0       0.6907478083434946  0.8427607450498041  0.6126707017669465 1.0000   
         H         H         1.0       0.7189635963256547  0.8512891572191397  0.5717941117239687 1.0000   
         C         C         1.0       0.7314761911859194  0.7208582071542085  0.22354525474689174          1.0000   
         C         C         1.0       0.7136513788293194  0.7594463125821982  0.2197647977113908 1.0000   
         C         C         1.0       0.7239809245787437  0.7991543743299496  0.23312530065768916          1.0000   
         C         C         1.0       0.7527097412850063  0.8026029354379066  0.24764529149627326          1.0000   
         C         C         1.0       0.7697004683192723  0.7622206518264694  0.2508505325446999 1.0000   
         C         C         1.0       0.7590664787614932  0.7222041071595234  0.2390957769052501 1.0000   
         H         H         1.0       0.6890039242528527  0.7567772702909705  0.21180413359880423          1.0000   
         H         H         1.0       0.7085518176019381  0.8285485888930111  0.2300683771946034 1.0000   
         H         H         1.0       0.7934400113284271  0.7650842608669398  0.25926611811589073          1.0000   
         H         H         1.0       0.7703971938611991  0.6905459309562894  0.24278277006769378          1.0000   
         C         C         1.0       0.7984919121528938  0.8355739475347783  0.30046324403592795          1.0000   
         C         C         1.0       0.7959303131458069  0.8574276675518836  0.2760922037213619 1.0000   
         C         C         1.0       0.8170985717989274  0.8945928470348996  0.2739685704616211 1.0000   
         C         C         1.0       0.8319394886611877  0.914551876929143   0.29578972518721447          1.0000   
         C         C         1.0       0.8311038862294915  0.894234756370968   0.32052955986525894          1.0000   
         C         C         1.0       0.8163359163636441  0.8526943042719889  0.32215541730661007          1.0000   
         C         C         1.0       0.7668240946019436  0.8514659898961243  0.25527996360882615          1.0000   
         C         C         1.0       0.7390809612908885  0.8769984665614045  0.2727791021955612 1.0000   
         C         C         1.0       0.7387723766586685  0.9240900268374062  0.27877570098845417          1.0000   
         C         C         1.0       0.7295775239925224  0.940813352101131   0.30322331266025576          1.0000   
         C         C         1.0       0.7128045286484234  0.9135704884146175  0.32135169357829907          1.0000   
         C         C         1.0       0.7078194135716861  0.8702006833913404  0.31418635774756   1.0000   
         C         C         1.0       0.7212126972700075  0.8518604036369439  0.2906477286261881 1.0000   
         C         C         1.0       0.8016334926646311  0.8420127948911885  0.21183084441736452          1.0000   
         C         C         1.0       0.819704721372986   0.8599481767312105  0.19081743789493794          1.0000   
         C         C         1.0       0.8161647322442697  0.9044264465428964  0.18411631915061832          1.0000   
         C         C         1.0       0.7882741086112085  0.9264124325210935  0.19517297839212353          1.0000   
         C         C         1.0       0.7717462519392969  0.908863328022591   0.21575379519376303          1.0000   
         C         C         1.0       0.7782468014321721  0.867859257696314   0.22569209478161184          1.0000   
         C         C         1.0       0.8439567052722912  0.929941340329288   0.16536289407676036          1.0000   
         C         C         1.0       0.9138161504808774  0.0013553787521338734        0.21967158758117394          1.0000   
         C         C         1.0       0.9178403989356589  0.0007446224257348089        0.19221101458509707          1.0000   
         C         C         1.0       0.8947646526879466  0.9819625626297305  0.17575950666260018          1.0000   
         C         C         1.0       0.8653396842087806  0.9626094642938623  0.18510578639103822          1.0000   
         C         C         1.0       0.8614169731046681  0.9670633620122799  0.21413171982818702          1.0000   
         C         C         1.0       0.8840809803300921  0.9866845316237973  0.23002402008932404          1.0000   
         C         C         1.0       0.8249183738648429  0.9603753786454989  0.14404585345309004          1.0000   
         C         C         1.0       0.7947349924849753  0.9474846228507486  0.1333296858942464 1.0000   
         C         C         1.0       0.7742986201689281  0.9763510112722201  0.1202101815842011 1.0000   
         C         C         1.0       0.7845904885756201  0.017499238441247122         0.11404627903426845          1.0000   
         C         C         1.0       0.8151261421792751  0.032580998409831224         0.1225598704484638 1.0000   
         C         C         1.0       0.8344129639623437  0.004534582787793395         0.137137217158156  1.0000   
         C         C         1.0       0.8585599224816265  0.8712953960807394  0.126059568674384  1.0000   
         C         C         1.0       0.8754509743728927  0.8344536365068863  0.11647963621189529          1.0000   
         C         C         1.0       0.900279663783868   0.8153908640525833  0.13200727852376987          1.0000   
         C         C         1.0       0.9103103117935208  0.8391949347556359  0.15383782308554814          1.0000   
         C         C         1.0       0.8929528393664505  0.8751507877960264  0.16461301750704685          1.0000   
         C         C         1.0       0.866248215158745   0.8917062306998677  0.15090390185523495          1.0000   
         H         H         1.0       0.7813225558217172  0.8070493762585238  0.30386044909732707          1.0000   
         H         H         1.0       0.8198892961169512  0.9115726760666801  0.25554272491728797          1.0000   
         H         H         1.0       0.8423083493571798  0.9475935162719397  0.29355732091972464          1.0000   
         H         H         1.0       0.815641981863221   0.8388414082172703  0.3428099338024612 1.0000   
         H         H         1.0       0.7520480206585115  0.9463954214223816  0.2668283324617365 1.0000   
         H         H         1.0       0.7287742855892733  0.9765099290957256  0.3092754234314634 1.0000   
         H         H         1.0       0.6987647396611197  0.8485771658573097  0.32956261356965744          1.0000   
         H         H         1.0       0.7187289549979853  0.8163836916533922  0.2876089372678383 1.0000   
         H         H         1.0       0.807350581428924   0.8106556271759532  0.21831833931106914          1.0000   
         H         H         1.0       0.837100113237342   0.8368400361357741  0.18195330814174418          1.0000   
         H         H         1.0       0.7818819971025457  0.9588739288350419  0.1894455045541907 1.0000   
         H         H         1.0       0.7518325481270076  0.9299086474889126  0.22329066664857514          1.0000   
         H         H         1.0       0.9411183040298202  0.01713664626490652           0.18594071231479903          1.0000   
         H         H         1.0       0.9018382348805886  0.9757615116654234  0.15517014260944015          1.0000   
         H         H         1.0       0.8412869833509532  0.9551173327029132  0.22483247126490452          1.0000   
         H         H         1.0       0.8791983954976718  0.993160470283106   0.25116406111439127          1.0000   
         H         H         1.0       0.7867396500007799  0.9150051995149782  0.13880382660489524          1.0000   
         H         H         1.0       0.7518474983691634  0.9629977928653728  0.11456508993826378          1.0000   
         H         H         1.0       0.824397419457008   0.06640711588884983           0.11689296480678675          1.0000   
         H         H         1.0       0.8577053751696325  0.020117529052467553         0.1432883204337879 1.0000   
         H         H         1.0       0.8390149192500007  0.8834510014686163  0.11290880238842899          1.0000   
         H         H         1.0       0.8714522262092894  0.8223793409174097  0.09583650344398463          1.0000   
         H         H         1.0       0.9305698641284511  0.825286434428467   0.16587669103819874          1.0000   
         H         H         1.0       0.9018267427183211  0.886846838140512   0.1853284253368113 1.0000   
         C         C         1.0       0.6362466580299753  0.9546496883339393  0.4179657771767563 1.0000   
         C         C         1.0       0.6472945573517066  0.9104042378609288  0.41216530659360406          1.0000   
         C         C         1.0       0.624882026768593   0.8758215927835502  0.4141545485190628 1.0000   
         C         C         1.0       0.5939388369491324  0.8849410496542158  0.42349487358105153          1.0000   
         C         C         1.0       0.5833641338391825  0.9287658226996292  0.425573722175732  1.0000   
         C         C         1.0       0.6045001967004187  0.964723383030556   0.42241817699499845          1.0000   
         H         H         1.0       0.6720937118454648  0.9062405903694115  0.41076615007828676          1.0000   
         H         H         1.0       0.6325374144491636  0.8409584897901166  0.4131760670949302 1.0000   
         H         H         1.0       0.5584381986949986  0.9354966217881576  0.4330068796657738 1.0000   
         H         H         1.0       0.5971791229604533  0.999318010731466   0.426827170938789  1.0000   
         C         C         1.0       0.5773273383156565  0.8835162687836408  0.48365933363497227          1.0000   
         C         C         1.0       0.558543031656076   0.8578398338567237  0.46500911671853273          1.0000   
         C         C         1.0       0.5301662730808256  0.8401987702850646  0.4741967006154258 1.0000   
         C         C         1.0       0.5188986611778432  0.8488727887123442  0.5003674286437299 1.0000   
         C         C         1.0       0.538903345865128   0.8679012894152563  0.5189223844910588 1.0000   
         C         C         1.0       0.5681686591698315  0.8875287183648306  0.5108083211375516 1.0000   
         C         C         1.0       0.5718077200661709  0.8451208702823696  0.4342148078915006 1.0000   
         C         C         1.0       0.5868349884424781  0.7979846694162048  0.44044244284206824          1.0000   
         C         C         1.0       0.5714804172698916  0.7568782253270518  0.43609228418102663          1.0000   
         C         C         1.0       0.5832717163584298  0.7185474598439525  0.4466623419247998 1.0000   
         C         C         1.0       0.6125184846559572  0.7185529184201422  0.46076575303012784          1.0000   
         C         C         1.0       0.6275878375008964  0.7579940201342673  0.46687141545612243          1.0000   
         C         C         1.0       0.6158017940335809  0.7964071490726221  0.45609521047410817          1.0000   
         C         C         1.0       0.5168091058306628  0.8629553458237188  0.4131162702850807 1.0000   
         C         C         1.0       0.0017987984718150773         0.8412504989078278 0.4203081337046324 1.0000   
         C         C         1.0       9.011471378972402e-05         0.8021786840711436 0.4039648923830014 1.0000   
         C         C         1.0       0.5227805288491322  0.7995432065475175  0.37168892034061585          1.0000   
         C         C         1.0       0.5497873588415629  0.8131080547977816  0.3846442669973528 1.0000   
         C         C         1.0       0.5450788243910685  0.8395676643891886  0.4092273874245288 1.0000   
         C         C         1.0       0.9658346660614978  0.7861203572037708  0.39194876812749563          1.0000   
         C         C         1.0       0.9238149940055639  0.7181857396853274  0.46309511378567286          1.0000   
         C         C         1.0       0.9211775401766866  0.7642136512882091  0.46093377299086297          1.0000   
         C         C         1.0       0.9343791030366406  0.7839830349711717  0.4385769494877796 1.0000   
         C         C         1.0       0.9526607691906721  0.7610002097860529  0.419046037416677  1.0000   
         C         C         1.0       0.9618630642631666  0.7186692757986918  0.42573340222208306          1.0000   
         C         C         1.0       0.9464129500905198  0.6957818871587209  0.4461059443682742 1.0000   
         C         C         1.0       0.9709253480734474  0.7546206126917192  0.36496281810394665          1.0000   
         C         C         1.0       0.991304020340047   0.7636138554258375  0.34365493227403365          1.0000   
         C         C         1.0       0.9912931608743226  0.7419951286259766  0.3182938910861343 1.0000   
         C         C         1.0       0.9708667683477025  0.705316084383999   0.31572311505630385          1.0000   
         C         C         1.0       0.9500173450101379  0.6939594303130209  0.336628271943396  1.0000   
         C         C         1.0       0.9491716442944804  0.7203168213655567  0.36001670442924716          1.0000   
         C         C         1.0       0.907257224453323   0.8141765011361737  0.3813570777222511 1.0000   
         C         C         1.0       0.8861788296033356  0.8453117556189572  0.3726982736305639 1.0000   
         C         C         1.0       0.898907255010269   0.8834117889310229  0.3615277189545576 1.0000   
         C         C         1.0       0.9320620492248757  0.8924396908400234  0.36010985031565296          1.0000   
         C         C         1.0       0.9524248742927414  0.8609082129354376  0.3700525519701291 1.0000   
         C         C         1.0       0.9401325257804516  0.8215333745231577  0.3803827428529342 1.0000   
         H         H         1.0       0.5984552232016572  0.9015739020260304  0.47862681141412583          1.0000   
         H         H         1.0       0.5136072633866434  0.8194278028557963  0.4608459990635828 1.0000   
         H         H         1.0       0.4973799052625328  0.8304680201186092  0.5069929291638826 1.0000   
         H         H         1.0       0.5831773456119735  0.909883435891661   0.5226262941175934 1.0000   
         H         H         1.0       0.5508207195510544  0.7522119626717509  0.4246870572601153 1.0000   
         H         H         1.0       0.5721949693171922  0.6865710137559055  0.4410009419873323 1.0000   
         H         H         1.0       0.6496789625172092  0.7641125128719704  0.47945089147288017          1.0000   
         H         H         1.0       0.6271110592282393  0.827771049426379   0.4617661841060958 1.0000   
         H         H         1.0       0.514340884462407   0.8849563023735807  0.4308711835969662 1.0000   
         H         H         1.0       0.9809019970369253  0.8651338754996606  0.42230544770989414          1.0000   
         H         H         1.0       0.5272958251450642  0.7775261632706516  0.35539197563191766          1.0000   
         H         H         1.0       0.5741062237649112  0.8031563842235689  0.38033936873696544          1.0000   
         H         H         1.0       0.9023737930313595  0.7815723262694343  0.4723109434133306 1.0000   
         H         H         1.0       0.9268209978530958  0.8174616223668011  0.4334943114786939 1.0000   
         H         H         1.0       0.9778368941416079  0.6971370499835887  0.4137084322731299 1.0000   
         H         H         1.0       0.9545792772999293  0.6634594868138586  0.4511157161892297 1.0000   
         H         H         1.0       0.49597072272506515           0.7935643937356909 0.31790725538338643          1.0000   
         H         H         1.0       0.007146730481074837          0.7517549463758458 0.3021353517843622 1.0000   
         H         H         1.0       0.9283727305983669  0.6710989499671733  0.3347899050559685 1.0000   
         H         H         1.0       0.9273665620695865  0.7180848846043892  0.37299386379732047          1.0000   
         H         H         1.0       0.8974768752217855  0.7858628726480058  0.3886810593745579 1.0000   
         H         H         1.0       0.8603268148141333  0.84417186094606    0.3730179813486733 1.0000   
         H         H         1.0       0.9445918721462111  0.9195633394158488  0.3512975094115693 1.0000   
         H         H         1.0       0.9774801565855334  0.8671202546557605  0.36899593597886965          1.0000   
         C         C         1.0       0.9879732965912872  0.9726635217183981  0.24767025642787474          1.0000   
         C         C         1.0       0.9899074757853714  0.9517494655870704  0.2218692939008277 1.0000   
         C         C         1.0       0.01737992380786446           0.928050955371538  0.21500706598905747          1.0000   
         C         C         1.0       0.4760929885475548  0.8914509056832648  0.23292508140897678          1.0000   
         C         C         1.0       0.48404197250259634           0.9246351156010095 0.25178136635792436          1.0000   
         C         C         1.0       0.012318429258380892          0.9663837063005298 0.26605135687512793          1.0000   
         H         H         1.0       0.9717460230557741  0.9532428662359006  0.2072340244500479 1.0000   
         H         H         1.0       0.01933411271763852           0.9104448297824096 0.19549754033261477          1.0000   
         H         H         1.0       0.5082162794242908  0.9364637027928502  0.2530185867304011 1.0000   
         H         H         1.0       0.009889178416849997          0.9803549059083914 0.28684757595975224          1.0000   
         C         C         1.0       0.48957560818545326           0.9282577791798424 0.17653825292790923          1.0000   
         C         C         1.0       0.5120263390417118  0.9146449197064916  0.1951466201372488 1.0000   
         C         C         1.0       0.5392867988571209  0.942379102038293   0.19813528466215313          1.0000   
         C         C         1.0       0.5435259121300958  0.981837969784356   0.18358735336038454          1.0000   
         C         C         1.0       0.5221745457402429  0.9903827890075396  0.16247196056886315          1.0000   
         C         C         1.0       0.49464881065653477           0.966189128361327  0.16018516866040117          1.0000   
         C         C         1.0       0.5039759436844007  0.8718641595177006  0.21374103667478767          1.0000   
         C         C         1.0       0.5006966907063475  0.8286727091398749  0.19259447674975158          1.0000   
         C         C         1.0       0.5208462863197627  0.8234542479614663  0.16938628739095568          1.0000   
         C         C         1.0       0.5201291433886678  0.7865009781712293  0.15230314298263647          1.0000   
         C         C         1.0       0.500631872560197   0.7513306777102823  0.15885555796354772          1.0000   
         C         C         1.0       0.4797135326808346  0.7555842673673104  0.17994562798245362          1.0000   
         C         C         1.0       0.4797838401856879  0.7932475896257638  0.19694801182466498          1.0000   
         C         C         1.0       0.5635413616120714  0.8452791196061922  0.22220475090592173          1.0000   
         C         C         1.0       0.5844348554963467  0.8112537744164436  0.2310725992817403 1.0000   
         C         C         1.0       0.5714957528510366  0.7810979535637507  0.25081190154936855          1.0000   
         C         C         1.0       0.5434387054882206  0.7939204364504415  0.2645219858667473 1.0000   
         C         C         1.0       0.5248163491988503  0.8280727702855725  0.25420722798258494          1.0000   
         C         C         1.0       0.5320971507684303  0.8505038479449645  0.23165669170806566          1.0000   
         C         C         1.0       0.5843276362221517  0.7315241266218949  0.25740643558950504          1.0000   
         C         C         1.0       0.6601235474508895  0.6724222320495058  0.20491354679705853          1.0000   
         C         C         1.0       0.6517043423688754  0.6549947202898813  0.22998135182303361          1.0000   
         C         C         1.0       0.6256512701778139  0.6714995470457873  0.24505002527251663          1.0000   
         C         C         1.0       0.607284311711097   0.7058452290026151  0.23603422342593294          1.0000   
         C         C         1.0       0.6127405127668375  0.7179524346584331  0.20923254243396955          1.0000   
         C         C         1.0       0.6365712557629312  0.6990524768375526  0.193778217053809  1.0000   
         C         C         1.0       0.5548057351340662  0.6974225355463685  0.25639445109937953          1.0000   
         C         C         1.0       0.5350318901269213  0.698052588727354   0.23203981631732792          1.0000   
         C         C         1.0       0.5054879234918731  0.6789361426262793  0.23162227039682556          1.0000   
         C         C         1.0       0.49412165003425285           0.6600754626704284 0.2553605643906103 1.0000   
         C         C         1.0       0.5129692038301612  0.6572292032800011  0.2789037845287187 1.0000   
         C         C         1.0       0.544460642764662   0.6716715341310967  0.27684592271929004          1.0000   
         C         C         1.0       0.5892289587882331  0.7484183600851104  0.3107796946608452 1.0000   
         C         C         1.0       0.6081015586910492  0.7541722943999898  0.3340084648055313 1.0000   
         C         C         1.0       0.6418327806909543  0.756186312316644   0.3326408961293804 1.0000   
         C         C         1.0       0.6549041760046378  0.7567098502948013  0.30787296556066623          1.0000   
         C         C         1.0       0.6363582846456204  0.7506170308853002  0.28348369411717905          1.0000   
         C         C         1.0       0.6042168495440968  0.7411794389426479  0.28514625257052095          1.0000   
         H         H         1.0       0.46600510354298447           0.9067590116161609 0.1739402675442936 1.0000   
         H         H         1.0       0.5570749899527613  0.9357924666756765  0.21425202284324446          1.0000   
         H         H         1.0       0.5667397093470861  0.9973662951510537  0.18652020777310424          1.0000   
         H         H         1.0       0.4753780840834462  0.9755031389160093  0.1467180033612885 1.0000   
         H         H         1.0       0.540274302563987   0.8473124537236993  0.16438346463407003          1.0000   
         H         H         1.0       0.5360878474238497  0.7827333766778687  0.1360988092742225 1.0000   
         H         H         1.0       0.4634186600816927  0.7288727119403415  0.18515562603960786          1.0000   
         H         H         1.0       0.4659163866261621  0.7946181468098993  0.2151222460951684 1.0000   
         H         H         1.0       0.5687033769547286  0.859418757954582   0.20372401678788882          1.0000   
         H         H         1.0       0.6059097965828446  0.802414734446328   0.21936208344754868          1.0000   
         H         H         1.0       0.5323888492907369  0.7728416438973325  0.27892755759430143          1.0000   
         H         H         1.0       0.5001517792415789  0.8304173990488662  0.26415339634742996          1.0000   
         H         H         1.0       0.6683246035069996  0.6345098196615664  0.23870463768147707          1.0000   
         H         H         1.0       0.6242220219537675  0.6557124101640748  0.26559926208319057          1.0000   
         H         H         1.0       0.5953252798847551  0.7396884563133104  0.20069464776119558          1.0000   
         H         H         1.0       0.6424609673336386  0.7103926902316827  0.17313330565759655          1.0000   
         H         H         1.0       0.5436037886771409  0.7174371439186157  0.21505089077880846          1.0000   
         H         H         1.0       0.013203257061038753          0.711545633810974  0.23889845423716   1.0000   
         H         H         1.0       0.5042760863172079  0.6386880067571795  0.2956133347865504 1.0000   
         H         H         1.0       0.560222587664576   0.6693782193518641  0.293620599422091  1.0000   
         H         H         1.0       0.5638744155936753  0.7487133872928224  0.31235038657607417          1.0000   
         H         H         1.0       0.5945613661610142  0.7575305400949535  0.35296923007881387          1.0000   
         H         H         1.0       0.6817655484573356  0.7559278244851018  0.30579687837874797          1.0000   
         H         H         1.0       0.653027637345379   0.7505544881456707  0.26588490660424713          1.0000   
         C         C         1.0       0.9635473319732847  0.6832934784454368  0.28680463658295596          1.0000   
         C         C         1.0       0.9879997956301971  0.6458439620624516  0.2758809490411024 1.0000   
         H         H         1.0       0.9378852637969545  0.6718091355243166  0.28621461706448476          1.0000   
         H         H         1.0       0.9661739575213951  0.7075032810661845  0.2709410533393292 1.0000   
         H         H         1.0       0.9793890923609757  0.6358854375622098  0.2554636791883239 1.0000   
         H         H         1.0       0.9838522113222788  0.6187786980019337  0.28971785147286566          1.0000   
         C         C         1.0       0.7239021541800987  0.6748959675766255  0.21048022187415136          1.0000   
         C         C         1.0       0.6936090621108518  0.6689348901386193  0.1917101378527188 1.0000   
         H         H         1.0       0.7441724685683613  0.6671266988870767  0.19784370696031217          1.0000   
         H         H         1.0       0.7238196849482003  0.6482866337727433  0.22536601374854429          1.0000   
         H         H         1.0       0.696282058313005   0.6362877744938106  0.18112907233714545          1.0000   
         H         H         1.0       0.6945050969365579  0.6934111776314213  0.17506510165095296          1.0000   
         C         C         1.0       0.9568248933184215  0.9938052397536709  0.2579619818560451 1.0000   
         C         C         1.0       0.9391730644026803  0.02476245839087654           0.23865489318272898          1.0000   
         H         H         1.0       0.9614788461025943  0.014062230919927643         0.2773271237714502 1.0000   
         H         H         1.0       0.9421384031604856  0.9646898464551663  0.26263843779087265          1.0000   
         H         H         1.0       0.9580673073011653  0.04409685868388946           0.2270745266415019 1.0000   
         H         H         1.0       0.9246973211664196  0.04644433247437615           0.25144767458672806          1.0000   
         C         C         1.0       0.8418826284248373  0.9184096427286017  0.34745191997527   1.0000   
         C         C         1.0       0.8778466935281224  0.9236990462931152  0.3534848240661565 1.0000   
         H         H         1.0       0.8357090862226512  0.9528129699394817  0.3434966238387077 1.0000   
         H         H         1.0       0.8259559543900244  0.9104088907418757  0.36409884451975555          1.0000   
         H         H         1.0       0.8901972616164038  0.9327740705047471  0.3329569284050764 1.0000   
         H         H         1.0       0.8833630932938202  0.9523854431950279  0.3679400997533846 1.0000   
         C         C         1.0       0.6669375294176693  0.7177771834267448  0.3748979231187383 1.0000   
         C         C         1.0       0.6631491312913791  0.7618278814878265  0.35842376782979984          1.0000   
         H         H         1.0       0.6785206885044287  0.6937780017835857  0.36043323754603374          1.0000   
         H         H         1.0       0.6417214547335364  0.707386440762353   0.3799656387085651 1.0000   
         H         H         1.0       0.6861867405400749  0.776239716433398   0.3520572142694344 1.0000   
         H         H         1.0       0.6506126826467156  0.7880535984395499  0.3704681106843226 1.0000   
         C         C         1.0       0.6614738776203097  0.9934085996334882  0.41943875417405585          1.0000   
         C         C         1.0       0.6646506072204262  0.015377178157308213         0.4484037411585097 1.0000   
         H         H         1.0       0.6849425665602512  0.9808941741587929  0.4133518303695874 1.0000   
         H         H         1.0       0.655209428052301   0.02125570552421685           0.4056316678957951 1.0000   
         H         H         1.0       0.6397962093599934  0.027279290554377056         0.45387941964322565          1.0000   
         H         H         1.0       0.6771996643509866  0.04651096207670409           0.44847302497630537          1.0000   
         C         C         1.0       0.8707490168623031  0.6717709398961603  0.46378907052988316          1.0000   
         C         C         1.0       0.90019498468105    0.690067778049415   0.4822083967912533 1.0000   
         H         H         1.0       0.8570535650420835  0.6428944192202898  0.4718975039504087 1.0000   
         H         H         1.0       0.8778100321771265  0.6620845821494535  0.44234860847780144          1.0000   
         H         H         1.0       0.9118366906519499  0.6620420081673445  0.4926556653716194 1.0000   
         H         H         1.0       0.8905507473863494  0.7154756796705505  0.49845504599566953          1.0000   
         C         C         1.0       0.741287321984278   0.9360400994311877  0.3669981361697756 1.0000   
         C         C         1.0       0.7090906450356256  0.9322960374424574  0.3505330926396722 1.0000   
         H         H         1.0       0.760952591242353   0.9385913181112913  0.3538523124762262 1.0000   
         H         H         1.0       0.7423194884310963  0.9707835073778138  0.377614840838884  1.0000   
         H         H         1.0       0.6952647962619595  0.9653658066661837  0.35047487679356454          1.0000   
         H         H         1.0       0.6928482548052706  0.9080251035653943  0.3622442787586533 1.0000   
         C         C         1.0       0.8599674622474011  0.04262645672305533           0.5559592542721782 1.0000   
         C         C         1.0       0.8347242263955814  0.04264118190184611           0.5787830097871672 1.0000   
         H         H         1.0       0.8541881058881865  0.0159511333401412  0.5406580219164971 1.0000   
         H         H         1.0       0.8832077083338957  0.02817456344154538           0.5623386005320403 1.0000   
         H         H         1.0       0.8242366069396213  0.07613074186493173           0.5821805813650328 1.0000   
         H         H         1.0       0.8441225575073112  0.03481192030569461           0.5996625936909683 1.0000   
         C         C         1.0       0.7637541449688887  0.04206919581512791           0.09346660574833758          1.0000   
         C         C         1.0       0.7766759390164504  0.0876399309114211  0.08106127431336752          1.0000   
         H         H         1.0       0.7403429075306258  0.0510994366645267  0.10454636069855947          1.0000   
         H         H         1.0       0.7569999428219     0.018436495139628306         0.07573055990607101          1.0000   
         H         H         1.0       0.7690364376408761  0.09513575173988897           0.05938862689567368          1.0000   
         H         H         1.0       0.804938331971681   0.08694832744086839           0.07960116470487903          1.0000   
         C         C         1.0       0.7318716525086065  0.1526018884465075  0.36754957812978967          1.0000   
         C         C         1.0       0.729164805124247   0.14236615787879398           0.3360300490682033 1.0000   
         H         H         1.0       0.7362456495046613  0.12155669853245978           0.3767865405423876 1.0000   
         H         H         1.0       0.7098841668201334  0.1652352268414547  0.377691148847816  1.0000   
         H         H         1.0       0.7051320025640236  0.12645698862585295           0.3323403192910529 1.0000   
         H         H         1.0       0.7437340086656249  0.11293295868863859           0.3291394888428634 1.0000   
         C         C         1.0       0.5031283390332203  0.7053585391453353  0.14572669466916857          1.0000   
         C         C         1.0       0.5382752030834896  0.6842353322072593  0.14698660318899276          1.0000   
         H         H         1.0       0.48525790650967643           0.6821059353199679 0.1532048623119193 1.0000   
         H         H         1.0       0.4964701777969211  0.7042753205247676  0.12418892318659457          1.0000   
         H         H         1.0       0.5542213937958232  0.7068384066806379  0.15995510714723127          1.0000   
         H         H         1.0       0.5501863046269252  0.6811604916659401  0.12726873818846124          1.0000   
         C         C         1.0       0.9819207314902336  0.2828918368279024  0.3393418301260985 1.0000   
         C         C         1.0       0.9520332705521822  0.2550517601145744  0.333472157065454  1.0000   
         H         H         1.0       0.9923855359847743  0.27855041693810756           0.3610722381825134 1.0000   
         H         H         1.0       0.0007574557379408375         0.2639580396454549 0.3269155834634663 1.0000   
         H         H         1.0       0.9574610263020373  0.22045637548344227           0.33999916864068963          1.0000   
         H         H         1.0       0.9489691706946968  0.25338829295377163           0.31151241883658826          1.0000   
         C         C         1.0       0.8317517377994479  0.3991855435304716  0.30329366121860507          1.0000   
         C         C         1.0       0.836342252628822   0.4448357595544607  0.29000016513965005          1.0000   
         H         H         1.0       0.8276253053588576  0.40311781827739074           0.3260566508659675 1.0000   
         H         H         1.0       0.8539809212396055  0.3785435071746011  0.3003479526967218 1.0000   
         H         H         1.0       0.8228226913454928  0.47345903650011767           0.3005163161274926 1.0000   
         H         H         1.0       0.8292546810762419  0.4447648883949482  0.267669829178208  1.0000   
         C         C         1.0       0.642309233083198   0.414682942220225   0.1414690632513076 1.0000   
         C         C         1.0       0.634439061158183   0.37241904500569506           0.12324830763643801          1.0000   
         H         H         1.0       0.6566111021161118  0.43633188294643555           0.12964961055048213          1.0000   
         H         H         1.0       0.658748398049725   0.40439811065665426           0.15859515427111243          1.0000   
         H         H         1.0       0.6251993541117792  0.3789121944003341  0.10145174150176985          1.0000   
         H         H         1.0       0.6165579845664295  0.3523107575398309  0.13437394532685085          1.0000   
         C         C         1.0       0.6189897915672411  0.6565066242166215  0.4964228366847991 1.0000   
         C         C         1.0       0.6282337879692356  0.6737976061905218  0.4673239078347521 1.0000   
         H         H         1.0       0.5946426956754747  0.6694323446667396  0.5028444092760436 1.0000   
         H         H         1.0       0.6348856924565204  0.6759016169574443  0.5114019607846522 1.0000   
         H         H         1.0       0.6187777483543433  0.6479801620880149  0.4520273930110531 1.0000   
         H         H         1.0       0.6540705817251398  0.6722714774156718  0.46432570983708504          1.0000   
         C         C         1.0       0.5779506306746528  0.6571532871109438  0.3624638062407082 1.0000   
         C         C         1.0       0.5453328317155467  0.642117970673569   0.37468004445296993          1.0000   
         H         H         1.0       0.586650384659952   0.6887197454999577  0.37291562739936623          1.0000   
         H         H         1.0       0.5748103805002772  0.666197511090869   0.3408588548307248 1.0000   
         H         H         1.0       0.5297020839169814  0.6727743842783426  0.3811018548353415 1.0000   
         H         H         1.0       0.5525462418117432  0.6269988463920292  0.39488938669858   1.0000   
         C         C         1.0       0.5939546720557469  0.36539547097990616           0.26964516025469715          1.0000   
         C         C         1.0       0.5851322154197457  0.3564023295972396  0.30088810269096794          1.0000   
         H         H         1.0       0.5728626500829193  0.34902146176834997           0.25706547328421964          1.0000   
         H         H         1.0       0.5910192973981155  0.40235180635848217           0.2650462601592494 1.0000   
         H         H         1.0       0.5886227424469795  0.32004513336484725           0.3048934431892979 1.0000   
         H         H         1.0       0.5602012084810695  0.3623610874701688  0.30492961630809945          1.0000   
         C         C         1.0       0.5062209491872909  0.3517302162278058  0.5228896803085239 1.0000   
         C         C         1.0       0.9818440078167963  0.3320349411563377  0.4971599349671202 1.0000   
         H         H         1.0       0.5016125344363948  0.3552450607343186  0.545002226116899  1.0000   
         H         H         1.0       0.5138560887223038  0.31743498357881833           0.5171325179494446 1.0000   
         H         H         1.0       0.9910443213998064  0.32863353605437207           0.4755653582402092 1.0000   
         H         H         1.0       0.9743390123638735  0.3684596163189878  0.4982510000170612 1.0000   
         C         C         1.0       0.8130708728210141  0.4810783708423941  0.38677961322027354          1.0000   
         C         C         1.0       0.7938240062043765  0.50285598578764    0.36382959022168976          1.0000   
         H         H         1.0       0.8034084433857308  0.4983394285550329  0.4050461291687805 1.0000   
         H         H         1.0       0.8389921042598407  0.4926718726335565  0.38377124341625807          1.0000   
         H         H         1.0       0.8034623063920627  0.5393067963599505  0.3618540553586997 1.0000   
         H         H         1.0       0.8004585693230425  0.48545145912542587           0.3432952122309493 1.0000   
         C         C         1.0       0.5488244608504302  0.8199191145521999  0.5577886252122506 1.0000   
         C         C         1.0       0.5299153928852129  0.8615732102655649  0.5482362158450299 1.0000   
         H         H         1.0       0.5735218213599075  0.8256287954881193  0.5516908692254281 1.0000   
         H         H         1.0       0.5398377464710707  0.7902801812049386  0.5464717719820243 1.0000   
         H         H         1.0       0.537898117509207   0.8900764960121573  0.5622980155966462 1.0000   
         H         H         1.0       0.5029086546185437  0.8600982952145859  0.5517540436927738 1.0000   
         C         C         1.0       0.5275507564606037  0.024997021380046114         0.1403955658162801 1.0000   
         C         C         1.0       0.5616300512145577  0.021789039922993192         0.12925047912448043          1.0000   
         H         H         1.0       0.5106375853242396  0.027232951467652367         0.12317771457564786          1.0000   
         H         H         1.0       0.5245123462329672  0.06126766036566104           0.1478312154637216 1.0000   
         H         H         1.0       0.5817438748910265  0.02559167626302084           0.14491400955133787          1.0000   
         H         H         1.0       0.5652570295207954  0.05192144060974324           0.11749427801510637          1.0000   
         C         C         1.0       0.6952779161306363  0.8025500267108299  0.8717748063518792 1.0000   
         C         C         1.0       0.7011516056410094  0.8097853151252492  0.8404703193175111 1.0000   
         H         H         1.0       0.717802622668805   0.7846085897311532  0.8775690119297982 1.0000   
         H         H         1.0       0.6754198978490222  0.7777459874824373  0.8740657378083179 1.0000   
         H         H         1.0       0.7117863184718782  0.7776025119759449  0.8299588730853019 1.0000   
         H         H         1.0       0.7227961160403886  0.832972755471754   0.8380356845609833 1.0000   
         C         C         1.0       0.9204094400629474  0.7741995269071016  0.12155969947498393          1.0000   
         C         C         1.0       0.9533776575697892  0.7847841516153984  0.10805371743465042          1.0000   
         H         H         1.0       0.921093499279965   0.7496560980033525  0.138201454053834  1.0000   
         H         H         1.0       0.9062293966966667  0.7556938170374778  0.10553862806450506          1.0000   
         H         H         1.0       0.9648023360680931  0.7538267350301358  0.10001533482680432          1.0000   
         H         H         1.0       0.9690846616902625  0.7967761888535629  0.12651486665583742          1.0000   
         C         C         1.0       0.9280768008138841  0.8056749043664765  0.858866205756888  1.0000   
         C         C         1.0       0.9255604119896252  0.8046868762391607  0.8270916473485737 1.0000   
         H         H         1.0       0.906593169538388   0.7918527019777081  0.869305827327169  1.0000   
         H         H         1.0       0.9472000918481335  0.7835410417893933  0.8655109375449641 1.0000   
         H         H         1.0       0.9070687961615629  0.8283137090494102  0.8201197060042308 1.0000   
         H         H         1.0       0.9147677491266648  0.7726251328600406  0.8195012178419463 1.0000   
         C         C         1.0       0.7707890342031343  0.8857370035973682  0.053529272130927404         1.0000   
         C         C         1.0       0.7549434576462523  0.867585718092806   0.08002857053420727          1.0000   
         H         H         1.0       0.7584890113441343  0.918498869464859   0.049344448816687564         1.0000   
         H         H         1.0       0.7633666156508095  0.8649583976074541  0.03655676377911814          1.0000   
         H         H         1.0       0.7624770416724947  0.8847910607297176  0.09833935427183038          1.0000   
         H         H         1.0       0.7636400441032724  0.8318236106031631  0.08049238199736662          1.0000   
         C         C         1.0       0.6178275999002393  0.10969316627282276           0.9063284057921595 1.0000   
         C         C         1.0       0.5843069709606442  0.12583744347779544           0.9142322829719408 1.0000   
         H         H         1.0       0.635855688681812   0.13633572724800538           0.9091425921243207 1.0000   
         H         H         1.0       0.6184853501266827  0.10245901403434124           0.8837288016146323 1.0000   
         H         H         1.0       0.5790057555737517  0.15984587346672252           0.9037516402864961 1.0000   
         H         H         1.0       0.5840036977051117  0.13545001646796564           0.9365389633763016 1.0000   
         C         C         1.0       0.66688279573623    0.8797445927924605  0.664505584773736  1.0000   
         C         C         1.0       0.6524391069401314  0.9052051760901292  0.6407270715528078 1.0000   
         H         H         1.0       0.6678777231396541  0.843743260260625   0.6575162955613535 1.0000   
         H         H         1.0       0.6475162856505716  0.8803711134487416  0.6799305372906527 1.0000   
         H         H         1.0       0.6525885544489854  0.9396666655299952  0.6499534179117836 1.0000   
         H         H         1.0       0.6255217390279797  0.8953354597350773  0.6384540676170127 1.0000   
         C         C         1.0       0.8169829485045942  0.8813691380435033  0.9335247552250523 1.0000   
         C         C         1.0       0.8140823394266062  0.9199405983672321  0.9565416779863086 1.0000   
         H         H         1.0       0.7991388506090478  0.8546224112799713  0.9409559322618681 1.0000   
         H         H         1.0       0.8401272405556529  0.8649130289607406  0.9324191023516196 1.0000   
         H         H         1.0       0.8238855267813803  0.9049404205655712  0.975265232053293  1.0000   
         H         H         1.0       0.830138114161851   0.9473278803851093  0.9509178571146423 1.0000   
         C         C         1.0       0.6501582771983491  0.08222801695892916           0.8339415562076692 1.0000   
         C         C         1.0       0.6372317051540463  0.07943563364438026           0.803551203739198  1.0000   
         H         H         1.0       0.6547543136315837  0.11456626042124714           0.8420104029696025 1.0000   
         H         H         1.0       0.6289169931646561  0.0718541390654526  0.8480178633006508 1.0000   
         H         H         1.0       0.6588720049728963  0.09223788938311571           0.7907091328316775 1.0000   
         H         H         1.0       0.6191044690408621  0.10499538710809313           0.8012432854453143 1.0000   
         C         C         1.0       0.898152390070352   0.8782357546117316  0.7101448684924222 1.0000   
         C         C         1.0       0.9016455637135479  0.8376666177883353  0.6893487041199327 1.0000   
         H         H         1.0       0.9050953598399532  0.8708622842600942  0.7317451798590574 1.0000   
         H         H         1.0       0.9166360401450165  0.901684714019001   0.7032202887046555 1.0000   
         H         H         1.0       0.8905151490925022  0.8470473827248689  0.6697700528082845 1.0000   
         H         H         1.0       0.8855494479108261  0.8130440473742376  0.6981819333455562 1.0000   
         C         C         1.0       0.8546861841719796  0.12996099706055897           0.8972468087187977 1.0000   
         C         C         1.0       0.8902946965177685  0.13587784466275235           0.8938393408242595 1.0000   
         H         H         1.0       0.8478382440195447  0.1340938686617015  0.9200222110438526 1.0000   
         H         H         1.0       0.8394550897954952  0.15548034317992737           0.8878327812410438 1.0000   
         H         H         1.0       0.8969635591460453  0.16798451368625575           0.9043224348302221 1.0000   
         H         H         1.0       0.8959239034490367  0.139717636435318   0.8716096106361595 1.0000   
         C         C         1.0       0.7788848755396076  0.2559601602791016  0.6080805277423478 1.0000   
         C         C         1.0       0.7822408962813943  0.3013527954031385  0.6228693998537885 1.0000   
         H         H         1.0       0.7535289146179366  0.25085070563048845           0.602592060443648  1.0000   
         H         H         1.0       0.7822773147933766  0.22848314128639705           0.6214504798805103 1.0000   
         H         H         1.0       0.7573766917473086  0.3089174035019691  0.6301449547217629 1.0000   
         H         H         1.0       0.7882025130333165  0.32747537814215644           0.6080185629433283 1.0000   
         C         C         1.0       0.7304564080661491  0.18598274819231297           0.731255130593442  1.0000   
         C         C         1.0       0.737708945478611   0.159041937359055   0.7037175238969039 1.0000   
         H         H         1.0       0.7332850505325831  0.15988537917441817           0.7482142481015148 1.0000   
         H         H         1.0       0.7036725119651328  0.19724287678778643           0.7313188961033587 1.0000   
         H         H         1.0       0.7567418560375437  0.1797627236329516  0.6949178949275622 1.0000   
         H         H         1.0       0.7172704146553921  0.16431123570095985           0.6899211941327011 1.0000   
         C         C         1.0       0.8768778713899041  0.33377199507025274           0.11597859476671073          1.0000   
         C         C         1.0       0.9035210852355359  0.30306658913086815           0.10169421331909526          1.0000   
         H         H         1.0       0.8712981309012369  0.3614891946317301  0.10189454134082575          1.0000   
         H         H         1.0       0.884527456032159   0.3546058705894309  0.1352481609113121 1.0000   
         H         H         1.0       0.9026524631382478  0.2694958803420848  0.10961080702264556          1.0000   
         H         H         1.0       0.9280240480460887  0.31411942599493736           0.1071996634803851 1.0000   
         C         C         1.0       0.9626765948990127  0.10650687224353138           0.02950187016343046          1.0000   
         C         C         1.0       0.9704001540803942  0.11774301561442721           0.9986623046981539 1.0000   
         H         H         1.0       0.9464483517862806  0.13289286905886386           0.03964165201475091          1.0000   
         H         H         1.0       0.9847410378098821  0.10762855049359465           0.04299802671330221          1.0000   
         H         H         1.0       0.9637550044422046  0.08865623916329242           0.9842069699370192 1.0000   
         H         H         1.0       0.9978263557607163  0.12301617119590968           0.9944188522575605 1.0000   
         C         C         1.0       0.775109989302298   0.16685164124406907           0.816817531855107  1.0000   
         C         C         1.0       0.8035166783216277  0.13219633292786598           0.8091177421727385 1.0000   
         H         H         1.0       0.7517583777867414  0.14866683950442422           0.8159504811780937 1.0000   
         H         H         1.0       0.7712499983484957  0.19203194818106942           0.8003926875194328 1.0000   
         H         H         1.0       0.7984934607690851  0.11285132562173392           0.7901336945551082 1.0000   
         H         H         1.0       0.8053103122979203  0.10814737185443701           0.8253544265594528 1.0000   
         C         C         1.0       0.9251210086605853  0.449213998732901   0.1472471752218795 1.0000   
         C         C         1.0       0.9422234180441634  0.4248989952075604  0.12284027917635416          1.0000   
         H         H         1.0       0.9042759289803555  0.43350826473313947           0.1549482358663723 1.0000   
         H         H         1.0       0.9150747532996828  0.4802015641667373  0.1373218717791344 1.0000   
         H         H         1.0       0.9508058525860106  0.39098336941220924           0.12822929387400356          1.0000   
         H         H         1.0       0.9234854757517678  0.4182699168788263  0.10662836776952454          1.0000   
         C         C         1.0       0.537130537408259   0.7198028556111813  0.06798225734473431          1.0000   
         C         C         1.0       0.5544189291338105  0.675321698360822   0.06175068694352409          1.0000   
         H         H         1.0       0.5313121168315916  0.7226136914701964  0.08981776858216924          1.0000   
         H         H         1.0       0.5135015250201727  0.7227577920513271  0.05705310383111244          1.0000   
         H         H         1.0       0.5716551674460036  0.6758839402290978  0.07817573692933757          1.0000   
         H         H         1.0       0.5676227748898363  0.6828352389603215  0.042424798363040625         1.0000   
         C         C         1.0       0.5216138149368773  0.24818577729225713           0.9038721755030358 1.0000   
         C         C         1.0       0.531495029600134   0.2673470821846308  0.8745254050656084 1.0000   
         H         H         1.0       0.5286676778980475  0.21214265666187068           0.9046004545251548 1.0000   
         H         H         1.0       0.9817549466962695  0.24234853603827602           0.9227250547635714 1.0000   
         H         H         1.0       0.5339178574523278  0.30369632095477384           0.8748336414449718 1.0000   
         H         H         1.0       0.5570201996855934  0.2567471246203882  0.8705344577002061 1.0000   
         C         C         1.0       0.9517576291554967  0.4318198077839137  0.9211953675924415 1.0000   
         C         C         1.0       0.9618769054941317  0.4711577759353993  0.9415411922292742 1.0000   
         H         H         1.0       0.9765135212382801  0.4219051351025036  0.9119678157003647 1.0000   
         H         H         1.0       0.9398916182504841  0.4460189328746887  0.902367364685078  1.0000   
         H         H         1.0       0.9402249091392979  0.4883800034681432  0.9513624472194138 1.0000   
         H         H         1.0       0.9714467057015822  0.4974733087983373  0.9270497370893171 1.0000   
         C         C         1.0       0.6805342794250346  0.268254305525972   0.03291694443244908          1.0000   
         C         C         1.0       0.6820510324182666  0.2264884527765994  0.012202750633318216         1.0000   
         H         H         1.0       0.7045131825519617  0.28568666317127134           0.03249889635738179          1.0000   
         H         H         1.0       0.6786611754262781  0.2560456851815322  0.05438431345708528          1.0000   
         H         H         1.0       0.6938753610833271  0.19990135169965526           0.024896480963603196         1.0000   
         H         H         1.0       0.6567938967144501  0.2204056377165837  0.005422439456310046         1.0000   
         C         C         1.0       0.7125173810183487  0.333189255005843   0.5774426959411733 1.0000   
         C         C         1.0       0.7166993315644525  0.35051621861195015           0.5479120173401172 1.0000   
         H         H         1.0       0.7366109620579329  0.3177676282971546  0.5815071460490325 1.0000   
         H         H         1.0       0.6940992284550692  0.3049742110094143  0.5749894698492749 1.0000   
         H         H         1.0       0.7255285433714851  0.3241092763483622  0.5336971167344191 1.0000   
         H         H         1.0       0.7383950759464941  0.3722534799026497  0.5471291622226396 1.0000   
         C         C         1.0       0.5899664402018494  0.6069458288887483  0.6689436688489137 1.0000   
         C         C         1.0       0.5847292027691066  0.5798664324242742  0.6420776622477514 1.0000   
         H         H         1.0       0.6154141558999703  0.6057032034365948  0.6749206877315299 1.0000   
         H         H         1.0       0.5779501764759334  0.5853490622415821  0.6841644490652968 1.0000   
         H         H         1.0       0.589749145312869   0.5968463052536277  0.6233496727378046 1.0000   
         H         H         1.0       0.5599245406616588  0.5635870524624139  0.6409626542674365 1.0000   
         C         C         1.0       0.5799901606831007  0.4306247257510782  0.8617977230320627 1.0000   
         C         C         1.0       0.6040126390700277  0.45718248648046855           0.8807915599372306 1.0000   
         H         H         1.0       0.5637521989332976  0.4571310328089777  0.8543764792767343 1.0000   
         H         H         1.0       0.5642339330435348  0.4074956079253609  0.871774067144739  1.0000   
         H         H         1.0       0.6005889872947142  0.49472738181327397           0.8794409246709609 1.0000   
         H         H         1.0       0.6277172690392686  0.45113685354934613           0.8710880657087636 1.0000   
         C         C         1.0       0.7729114580715564  0.418041281930549   0.8353085391594    1.0000   
         C         C         1.0       0.764912273688339   0.4393620495265554  0.8632255354000072 1.0000   
         H         H         1.0       0.7902860280292017  0.39140418902716856           0.8375603342161397 1.0000   
         H         H         1.0       0.7872340258562314  0.44507740917452093           0.8255301081043491 1.0000   
         H         H         1.0       0.7814684193670411  0.464434796731894   0.8704732071583233 1.0000   
         H         H         1.0       0.7408720053640946  0.45367864312372796           0.8646503252738407 1.0000   
         C         C         1.0       0.6069942095781522  0.1739826139784442  0.7422092846107363 1.0000   
         C         C         1.0       0.5778021611768858  0.16413862898665893           0.7222256475731839 1.0000   
         H         H         1.0       0.6279609422012858  0.15535486069104998           0.7338076054222282 1.0000   
         H         H         1.0       0.6035684176846589  0.1562440202268275  0.7621394788075461 1.0000   
         H         H         1.0       0.5794595057197965  0.12953530621012832           0.7147823097396155 1.0000   
         H         H         1.0       0.5786772304551997  0.1828226340497006  0.7029712403544015 1.0000   
         C         C         1.0       0.8114474623120523  0.5194517980505303  0.7548263066270858 1.0000   
         C         C         1.0       0.8026366824478027  0.5408933619300137  0.7275818522853316 1.0000   
         H         H         1.0       0.788941091355066   0.5248868099224068  0.7698230287543008 1.0000   
         H         H         1.0       0.8328935624374486  0.5374599802957644  0.763541932261014  1.0000   
         H         H         1.0       0.8247684718170311  0.5398645695472737  0.7137770402470766 1.0000   
         H         H         1.0       0.8011143089409934  0.5783078082308801  0.7307539583181601 1.0000

