data_0
_chemical_formula_sum                   'C1600 H1280'
_cell_length_a                          40.307961837652655
_cell_length_b                          33.28225166528512
_cell_length_c                          47.1486867454311
_cell_angle_alpha                       91.61071300690163
_cell_angle_beta                        113.4109572085237
_cell_angle_gamma                       90.26321410082036
_space_group_name_H-M_alt               'P 1'
_space_group_IT_number                  1
loop_
  _space_group_symop_operation_xyz
         'x, y, z' 
loop_
  _atom_site_type_symbol
  _atom_site_label
  _atom_site_symmetry_multiplicity
  _atom_site_fract_x
  _atom_site_fract_y
  _atom_site_fract_z
  _atom_site_occupancy
         C         C         1.0       0.4295300535225147  0.9108573715331106  0.4636885509837568 1.0000   
         C         C         1.0       0.39747674435040314           0.9283373911060098 0.44590839387254044          1.0000   
         C         C         1.0       0.3665556887749897  0.9056981872307404  0.42820479090096775          1.0000   
         C         C         1.0       0.3659863076476586  0.8646580403822667  0.4285107631857549 1.0000   
         C         C         1.0       0.39866443625586223           0.8473915032279089 0.44563008276734073          1.0000   
         C         C         1.0       0.4293672441429786  0.8703321654736756  0.4632832248731318 1.0000   
         H         H         1.0       0.39239332783619585           0.9596724736406592 0.4461308208141362 1.0000   
         H         H         1.0       0.342270049005243   0.9230917311203883  0.4160332734554482 1.0000   
         H         H         1.0       0.4026344778032042  0.8155218882531838  0.4461616801092317 1.0000   
         H         H         1.0       0.45351943494547325           0.8537408169775793 0.47795433873809773          1.0000   
         C         C         1.0       0.3597998049572906  0.7882521930100824  0.38692219391099403          1.0000   
         C         C         1.0       0.33444831736922925           0.7926280692768198 0.40019858454264584          1.0000   
         C         C         1.0       0.3114260628990382  0.7590911062178651  0.39746272822841855          1.0000   
         C         C         1.0       0.3161578215432007  0.7232982354091548  0.38356517185738565          1.0000   
         C         C         1.0       0.3409626757823147  0.7230172362972526  0.3695605391137233 1.0000   
         C         C         1.0       0.3674991319239354  0.7521106148800132  0.37745002835014135          1.0000   
         C         C         1.0       0.3278195999125877  0.837269010142252   0.4119122066683933 1.0000   
         C         C         1.0       0.29871279399670275           0.8525537155269983 0.3799570936379494 1.0000   
         C         C         1.0       0.2625383671484186  0.8438899196259453  0.37079968978615796          1.0000   
         C         C         1.0       0.23856715485007915           0.8587603349751904 0.3429808749749981 1.0000   
         C         C         1.0       0.25004767852388116           0.8785421732471504 0.323932765434395  1.0000   
         C         C         1.0       0.28664166098387056           0.8857158085301974 0.3336796088175172 1.0000   
         C         C         1.0       0.31033099702524397           0.8739783134660883 0.36222235009863546          1.0000   
         C         C         1.0       0.3370008659953688  0.811329168439696   0.4648589652301566 1.0000   
         C         C         1.0       0.3368520401192059  0.817996163117095   0.4942054736337552 1.0000   
         C         C         1.0       0.3178603480021996  0.849637279108926   0.4994384790674536 1.0000   
         C         C         1.0       0.29483507069627457           0.8699904391808377 0.4743159795989191 1.0000   
         C         C         1.0       0.2954489125754613  0.8637337540443093  0.4456231905736188 1.0000   
         C         C         1.0       0.3162546945057513  0.8346933248893826  0.4397842518756777 1.0000   
         C         C         1.0       0.326622290861071   0.8677895723656177  0.5336753031922674 1.0000   
         C         C         1.0       0.25646486699966625           0.7763996217323977 0.5464136658541845 1.0000   
         C         C         1.0       0.29351202156255973           0.7702040105277654 0.5582166709524585 1.0000   
         C         C         1.0       0.3163451840178286  0.7994052958612535  0.5560964695349221 1.0000   
         C         C         1.0       0.30251931003785065           0.8353548803948126 0.542321594080962  1.0000   
         C         C         1.0       0.26575526475754613           0.8410415212657069 0.5295782161896455 1.0000   
         C         C         1.0       0.2422173959793498  0.8130063780920106  0.5343508754399091 1.0000   
         C         C         1.0       0.3203341081821752  0.9119302537139555  0.5370158204745877 1.0000   
         C         C         1.0       0.3319051240466121  0.9413851627458454  0.5218062551408901 1.0000   
         C         C         1.0       0.33496836598794727           0.9818751380302378 0.530602241080071  1.0000   
         C         C         1.0       0.3220345748268537  0.9931544543165116  0.5522208485534184 1.0000   
         C         C         1.0       0.3075055720412124  0.9653052178811786  0.5650927996023293 1.0000   
         C         C         1.0       0.3086274480588755  0.9247847184740258  0.5592631987931187 1.0000   
         C         C         1.0       0.37939215553286865           0.8634530485877976 0.58572675909926   1.0000   
         C         C         1.0       0.4138159860125421  0.8573904217764624  0.6054352482761506 1.0000   
         C         C         1.0       0.4396589299980388  0.8577315933350265  0.5930480370527068 1.0000   
         C         C         1.0       0.43127179440867597           0.8709574005392924 0.5634687241856874 1.0000   
         C         C         1.0       0.3949307714837532  0.8748096060478564  0.5436123921455912 1.0000   
         C         C         1.0       0.3678950661232487  0.8688294478160014  0.5550476561528204 1.0000   
         H         H         1.0       0.37232172488326626           0.8124234166267128 0.3797801837622847 1.0000   
         H         H         1.0       0.2869907310662788  0.7618642860107203  0.4024942697710823 1.0000   
         H         H         1.0       0.2962585601160948  0.699545653723197   0.3766938723313166 1.0000   
         H         H         1.0       0.390071330987999   0.7506180544525113  0.370340164610537  1.0000   
         H         H         1.0       0.2530043909674478  0.8285355913116309  0.3863299060905727 1.0000   
         H         H         1.0       0.20916448453246836           0.8516919219917152 0.3349706584605311 1.0000   
         H         H         1.0       0.2947031620328386  0.8983075136274442  0.3161024707643051 1.0000   
         H         H         1.0       0.33949207914832136           0.8761808601796611 0.3693663439036962 1.0000   
         H         H         1.0       0.35298414847722565           0.7894098322179529 0.4609834881881413 1.0000   
         H         H         1.0       0.35320480236571666           0.7981913497904364 0.5124647698848275 1.0000   
         H         H         1.0       0.2818462819443179  0.895481711743793   0.47949944469078476          1.0000   
         H         H         1.0       0.2821275815498018  0.8832218860528527  0.4278720929353307 1.0000   
         H         H         1.0       0.304015939474112   0.7400222964093093  0.5651739448597514 1.0000   
         H         H         1.0       0.3446642561967126  0.7949654638279132  0.5624733748567627 1.0000   
         H         H         1.0       0.25586668216989633           0.8703470920788953 0.5217051166465977 1.0000   
         H         H         1.0       0.21310294043679887           0.8191419217656278 0.5269771874475611 1.0000   
         H         H         1.0       0.34346780732040755           0.9345720249656589 0.505020297393128  1.0000   
         H         H         1.0       0.3453370469195496  0.005022732111637618         0.5187728617752198 1.0000   
         H         H         1.0       0.29923230042690757           0.9769732572005837 0.5828246771616412 1.0000   
         H         H         1.0       0.2966825606732281  0.904586311936136   0.5708924933075895 1.0000   
         H         H         1.0       0.3627463024603621  0.863499308295956   0.5984777957732487 1.0000   
         H         H         1.0       0.4198083732722248  0.8502831583267213  0.6296746916522827 1.0000   
         H         H         1.0       0.450171985953977   0.8716765851239997  0.5548105569171039 1.0000   
         H         H         1.0       0.39001292966591156           0.8791645269952265 0.5194418892528118 1.0000   
         C         C         1.0       0.25193768462374444           0.8910342372111278 0.18689835472695948          1.0000   
         C         C         1.0       0.27968314981525333           0.9182709766420593 0.20266202597108668          1.0000   
         C         C         1.0       0.31078914706665656           0.9051387446569786 0.22601869592714444          1.0000   
         C         C         1.0       0.31640552309102105           0.8648474931021083 0.23468311551050275          1.0000   
         C         C         1.0       0.28826984265441086           0.8387287437779978 0.21797247927729504          1.0000   
         C         C         1.0       0.2568999850426234  0.8515861519855891  0.19516431234511566          1.0000   
         H         H         1.0       0.27930677388126424           0.9498709283536954 0.1953340785981864 1.0000   
         H         H         1.0       0.3286414034946912  0.928385522720773   0.23966730694511051          1.0000   
         H         H         1.0       0.2892465269231502  0.8079989173360784  0.22135861980247185          1.0000   
         H         H         1.0       0.23521367250329114           0.830860970031288  0.18230519746850454          1.0000   
         C         C         1.0       0.31296948971097305           0.8081490970152913 0.28487891497303985          1.0000   
         C         C         1.0       0.34569766399031704           0.8133420581974281 0.28076062510275557          1.0000   
         C         C         1.0       0.3713738339396893  0.7827333858680143  0.29350262162451374          1.0000   
         C         C         1.0       0.3624282202859966  0.7496679961035546  0.3050877191025454 1.0000   
         C         C         1.0       0.3296197154664713  0.7435932701448574  0.30618355033715056          1.0000   
         C         C         1.0       0.30609345377110697           0.7749229454750926 0.29888214335221286          1.0000   
         C         C         1.0       0.3526379332890054  0.8487824173490927  0.26098485797488447          1.0000   
         C         C         1.0       0.3757850965781975  0.8774273811767385  0.28956799022757557          1.0000   
         C         C         1.0       0.41410732237839804           0.8728821362838166 0.30619144775740825          1.0000   
         C         C         1.0       0.4354613168559103  0.8986728743921062  0.3288427652391597 1.0000   
         C         C         1.0       0.41744928194019837           0.9290703346766573 0.3373679081192953 1.0000   
         C         C         1.0       0.37980167863538306           0.9331221699966311 0.32390436545500684          1.0000   
         C         C         1.0       0.3580207409549928  0.9060883787899197  0.30159586622991924          1.0000   
         C         C         1.0       0.38330610713506474           0.8015495419461676 0.23497817962768883          1.0000   
         C         C         1.0       0.41329897368835905           0.7925034371809335 0.22936696455189756          1.0000   
         C         C         1.0       0.4358291963151263  0.8220533830117062  0.22585856973252758          1.0000   
         C         C         1.0       0.42465854443431245           0.8612793718052345 0.22713897398005573          1.0000   
         C         C         1.0       0.39708834279646743           0.8712319170836993 0.2354592195328158 1.0000   
         C         C         1.0       0.37743003352908155           0.8415802616928103 0.2422660701392406 1.0000   
         C         C         1.0       0.47420348969982534           0.8137947487405949 0.22536861109912001          1.0000   
         C         C         1.0       0.4715858662987674  0.6906099210680691  0.18905808193772014          1.0000   
         C         C         1.0       0.4456345435760373  0.7176911559509888  0.17472575298400736          1.0000   
         C         C         1.0       0.4466870919532285  0.7562090659588105  0.1852315054173523 1.0000   
         C         C         1.0       0.4742102518771825  0.768400830808186   0.2131043528343298 1.0000   
         C         C         1.0       0.49953131894695013           0.7421707405941078 0.22848536384061616          1.0000   
         C         C         1.0       0.4981458591185757  0.7030070614119495  0.21777751453381403          1.0000   
         C         C         1.0       0.4975188096534511  0.8266554525620876  0.26091232445737966          1.0000   
         C         C         1.0       0.5123691295609032  0.8645152229284999  0.2709370529124366 1.0000   
         C         C         1.0       0.5265368126667942  0.8783641292376829  0.300863290162292  1.0000   
         C         C         1.0       0.5254687687241124  0.8543196219201635  0.3226966378893118 1.0000   
         C         C         1.0       0.5149637879806831  0.8137709136091232  0.3148476481651868 1.0000   
         C         C         1.0       0.49783435788873526           0.8011991039405966 0.2836387378164963 1.0000   
         C         C         1.0       0.5187967906194616  0.8380750869062941  0.20745933370237246          1.0000   
         C         C         1.0       0.530054892659111   0.8558421409158536  0.1865236543007318 1.0000   
         C         C         1.0       0.5049530452494362  0.8694752541808336  0.16007227473376598          1.0000   
         C         C         1.0       0.4692738997092219  0.869429303342034   0.15419910006466314          1.0000   
         C         C         1.0       0.45819194675981695           0.8512079014637154 0.17416865549889918          1.0000   
         C         C         1.0       0.48284852860840755           0.8373036215751155 0.2014372897261095 1.0000   
         H         H         1.0       0.29250759151044    0.8300632948570323  0.276611597152922  1.0000   
         H         H         1.0       0.39754314088281845           0.7851397648593545 0.2920706315395073 1.0000   
         H         H         1.0       0.3816992284021166  0.724979142733014   0.3090829585600246 1.0000   
         H         H         1.0       0.2799018183596328  0.7733984836664961  0.2999289476451892 1.0000   
         H         H         1.0       0.426465547821496   0.846511506136295   0.30084388223524955          1.0000   
         H         H         1.0       0.46410455990021154           0.8999019786469765 0.3375821040719423 1.0000   
         H         H         1.0       0.3681961357900008  0.9616211810993941  0.32994065023893887          1.0000   
         H         H         1.0       0.3294361211846827  0.9114244365515367  0.28921946378137603          1.0000   
         H         H         1.0       0.36939535876566765           0.7755303923892248 0.23691839112933924          1.0000   
         H         H         1.0       0.41811682689875407           0.7617407644671668 0.22811275537829565          1.0000   
         H         H         1.0       0.44211696867828676           0.8845371896215727 0.2259834201008779 1.0000   
         H         H         1.0       0.39009466908185064           0.901836684680296  0.2369083972950908 1.0000   
         H         H         1.0       0.4223417895715007  0.7093795164243448  0.1538192249146937 1.0000   
         H         H         1.0       0.4242999767010097  0.7742685182368948  0.17384562544310253          1.0000   
         H         H         1.0       0.5217477487060711  0.7515050962183768  0.24857668235169716          1.0000   
         H         H         1.0       0.5156940170773323  0.6806095159430694  0.23216152202756196          1.0000   
         H         H         1.0       0.5130459943221615  0.8843722017027196  0.2523234078471585 1.0000   
         H         H         1.0       0.5345628053003316  0.910732366479299   0.3046491402898999 1.0000   
         H         H         1.0       0.5152160136702992  0.7947086190517361  0.33429083282413274          1.0000   
         H         H         1.0       0.4863079260853228  0.7722038710881395  0.279184462653581  1.0000   
         H         H         1.0       0.5399437192994271  0.8274651163520397  0.22868438681188402          1.0000   
         H         H         1.0       0.5568535787030107  0.8627584933853806  0.19197506201118536          1.0000   
         H         H         1.0       0.4504541855723181  0.8754215115920488  0.13243849760073814          1.0000   
         H         H         1.0       0.42898349692072935           0.8498782094735043 0.16672649801937073          1.0000   
         C         C         1.0       0.4970068469753676  0.17014395011325562           0.612595432873208  1.0000   
         C         C         1.0       0.5274164087816761  0.1753674737941582  0.6076073757681484 1.0000   
         C         C         1.0       0.5442870404130938  0.14390625759303166           0.6006108876417061 1.0000   
         C         C         1.0       0.5327991394386399  0.1054694183846987  0.6011754744440431 1.0000   
         C         C         1.0       0.5043540676120221  0.09893276199940959           0.6101743131441033 1.0000   
         C         C         1.0       0.48588686696553046           0.13123784430388574          0.6151448997314736 1.0000   
         H         H         1.0       0.5369554155377178  0.2060491885014548  0.607657118347814  1.0000   
         H         H         1.0       0.565174604549943   0.14917875655197332           0.5921195521402214 1.0000   
         H         H         1.0       0.4938649276226428  0.06896437147389478           0.611725568794653  1.0000   
         H         H         1.0       0.46103792798549287           0.12907019127885655          0.6186304920110739 1.0000   
         C         C         1.0       0.5365205980908413  0.9898212423431333  0.5832110058326002 1.0000   
         C         C         1.0       0.5247913932201211  0.028741214096390966         0.5770086245053985 1.0000   
         C         C         1.0       0.4902953901705568  0.03455089536312417           0.5555146530985099 1.0000   
         C         C         1.0       0.46931647586757896           0.003643785588792081         0.5388396582526791 1.0000   
         C         C         1.0       0.4841692433756036  0.9658480297973352  0.5411872763355676 1.0000   
         C         C         1.0       0.5156666086318547  0.957378546998811   0.5652718153117878 1.0000   
         C         C         1.0       0.5505010485511701  0.06699777471128532           0.5905362181849811 1.0000   
         C         C         1.0       0.5869175887415815  0.06334152351610522           0.6197937022720993 1.0000   
         C         C         1.0       0.5885750927428424  0.03974745095967336           0.6437546457461955 1.0000   
         C         C         1.0       0.6191593336762821  0.03806711710226218           0.6691797283085361 1.0000   
         C         C         1.0       0.6484675971195548  0.06315527660424425           0.6733993590830297 1.0000   
         C         C         1.0       0.6456655545179518  0.08796138940339238           0.650826833883053  1.0000   
         C         C         1.0       0.6171273050247013  0.084914139476435   0.6239445398926309 1.0000   
         C         C         1.0       0.5461566512848646  0.09981625226623647           0.5362554436548601 1.0000   
         C         C         1.0       0.5496878234063257  0.09452198415308288           0.5088734626194187 1.0000   
         C         C         1.0       0.5681571576142144  0.06287353521778538           0.5027225141070611 1.0000   
         C         C         1.0       0.5838050971719072  0.03574499009477328           0.526510019312101  1.0000   
         C         C         1.0       0.5819259970749776  0.040657177226122165         0.5537525103839261 1.0000   
         C         C         1.0       0.5617371587073094  0.0716006332776391  0.5604240235351792 1.0000   
         C         C         1.0       0.572108979407709   0.05567869440481088           0.4714313278188183 1.0000   
         C         C         1.0       0.47273768597682153           0.9936840258403857 0.4120675356735894 1.0000   
         C         C         1.0       0.4783107986858478  0.03319054824635703           0.40684280258563765          1.0000   
         C         C         1.0       0.5077816623996391  0.0524889532763082  0.4280507408737274 1.0000   
         C         C         1.0       0.5347740254751301  0.0321971080781529  0.4512521280028942 1.0000   
         C         C         1.0       0.5279545462150637  0.9923493761317702  0.4551799358544162 1.0000   
         C         C         1.0       0.4981614309514236  0.9718964891672575  0.4343873818133907 1.0000   
         C         C         1.0       0.1793625322890233  0.0543025520059075  0.49396941533971744          1.0000   
         C         C         1.0       0.2000795866117169  0.051043114926544675         0.5251186715735527 1.0000   
         C         C         1.0       0.23694790118637876           0.05564249820111411          0.5383032604008471 1.0000   
         C         C         1.0       0.2546307095355516  0.06213122473397781           0.5186136282985375 1.0000   
         C         C         1.0       0.23450743892821568           0.06595569489761033          0.4880045730781364 1.0000   
         C         C         1.0       0.19787574674813244           0.062620417074841  0.47507580424155316          1.0000   
         C         C         1.0       0.5734322151076285  0.09689760160546657           0.42513870569533135          1.0000   
         C         C         1.0       0.5869165804990892  0.12837997170093796           0.4142495883867213 1.0000   
         C         C         1.0       0.6101463524026861  0.15623476416698967           0.4348563008914451 1.0000   
         C         C         1.0       0.6147122016576116  0.1565489713992172  0.4644214288469085 1.0000   
         C         C         1.0       0.6018854600415444  0.12627046668762443           0.47576444192211703          1.0000   
         C         C         1.0       0.5811946658824564  0.09505955638137942           0.4562129189586488 1.0000   
         H         H         1.0       0.564567392119555   0.982991274982135   0.6001792427446195 1.0000   
         H         H         1.0       0.4828801096457563  0.0647556515531682  0.5494422590588631 1.0000   
         H         H         1.0       0.4437539996118579  0.007774105238157247         0.5211971093285422 1.0000   
         H         H         1.0       0.5228849204246625  0.92776621822498    0.5678561445264432 1.0000   
         H         H         1.0       0.5635986293781927  0.024351462979796734         0.6429484493936414 1.0000   
         H         H         1.0       0.6178222284927049  0.015421656858676247         0.6850134354561545 1.0000   
         H         H         1.0       0.5965026076880113  0.9433553461952413  0.14218585250744517          1.0000   
         H         H         1.0       0.6170586764407254  0.10976193517731181           0.6089266520813464 1.0000   
         H         H         1.0       0.5304711382571206  0.12581685188063174           0.5375478845142684 1.0000   
         H         H         1.0       0.5389053525159467  0.11504142295153708           0.49116605476805575          1.0000   
         H         H         1.0       0.5939061499233089  0.008064390551677958         0.5218896495630093 1.0000   
         H         H         1.0       0.5922954673253112  0.01888778926774859           0.5706344860187431 1.0000   
         H         H         1.0       0.45754505761494957           0.04895292294525744          0.3899464764226741 1.0000   
         H         H         1.0       0.5097061291370192  0.08225127133395604           0.4230983417176805 1.0000   
         H         H         1.0       0.5481963416326281  0.9748407948063683  0.473675211114951  1.0000   
         H         H         1.0       0.4932669349461951  0.9396587998407948  0.4338687023695147 1.0000   
         H         H         1.0       0.18346684459872692           0.045114229562624564         0.5380583651103285 1.0000   
         H         H         1.0       0.25222696699530794           0.05154104034737905          0.5633741650639581 1.0000   
         H         H         1.0       0.24985628617356434           0.07372113425574134          0.47486389744445795          1.0000   
         H         H         1.0       0.5849126171172209  0.9951659434234253  0.4373536140270032 1.0000   
         H         H         1.0       0.5610162105842482  0.07300775143229532           0.4091223642704695 1.0000   
         H         H         1.0       0.5860269251314795  0.1255394222406374  0.3902899405359527 1.0000   
         H         H         1.0       0.63546302037789    0.17613341594641918           0.47999739357206195          1.0000   
         H         H         1.0       0.607908629477404   0.12640295959664716           0.49887134594049437          1.0000   
         C         C         1.0       0.31532037044953676           0.15836598477899377          0.21947583331712017          1.0000   
         C         C         1.0       0.2897514482344582  0.1769330133329281  0.22778256118038326          1.0000   
         C         C         1.0       0.25755814327505167           0.15937001510341253          0.22155750606343505          1.0000   
         C         C         1.0       0.24684086911812683           0.1228352334203775 0.20463971041564258          1.0000   
         C         C         1.0       0.27277684965623505           0.10314772599707744          0.19742410748526235          1.0000   
         C         C         1.0       0.3058753919678686  0.12127529500203571           0.20299966835434807          1.0000   
         H         H         1.0       0.298100076787988   0.2078816024875334  0.2384676162547646 1.0000   
         H         H         1.0       0.23854034613484967           0.1786855524168922 0.225425820557002  1.0000   
         H         H         1.0       0.268288226757839   0.07528134949407872           0.1835151730616589 1.0000   
         H         H         1.0       0.326263237873527   0.10755229312085479           0.19677210490242208          1.0000   
         C         C         1.0       0.17582752868318735           0.03646519265500081          0.16302421167877984          1.0000   
         C         C         1.0       0.20438109878266908           0.056329663807479724         0.1871500817510223 1.0000   
         C         C         1.0       0.2265321397878655  0.03175447143813126           0.20938029419121335          1.0000   
         C         C         1.0       0.2232101235456181  0.990534111477146   0.20777044793346613          1.0000   
         C         C         1.0       0.19622091059520327           0.9711965732766324 0.18180848300263958          1.0000   
         C         C         1.0       0.17369452921814946           0.9957345973848247 0.15889505817778996          1.0000   
         C         C         1.0       0.20748168196655045           0.1050476208444946 0.18970875333750017          1.0000   
         C         C         1.0       0.1922504727806805  0.1265523846484906  0.15802622136847805          1.0000   
         C         C         1.0       0.2012008017426085  0.11208270755887617           0.13475813076567209          1.0000   
         C         C         1.0       0.19254391487293152           0.1334119565404812 0.10871238220388002          1.0000   
         C         C         1.0       0.17299007880979064           0.16830453888228702          0.10318148213885436          1.0000   
         C         C         1.0       0.16647185026831288           0.18494952233023487          0.12751328582823396          1.0000   
         C         C         1.0       0.1763668040855096  0.16410982872661006           0.15510649753505132          1.0000   
         C         C         1.0       0.19668107337657614           0.1057966687538281 0.241469654774925  1.0000   
         C         C         1.0       0.1751503038107219  0.0958028721888009  0.2575748568420706 1.0000   
         C         C         1.0       0.13768447714952    0.08449184351222727           0.2405206600566628 1.0000   
         C         C         1.0       0.12340567882731913           0.08914628857312823          0.20764354253466402          1.0000   
         C         C         1.0       0.14663260518583685           0.10288317421033732          0.19495905950888004          1.0000   
         C         C         1.0       0.1828304912722647  0.10892322795435794           0.20904798049896486          1.0000   
         C         C         1.0       0.11639882745563222           0.05812890849711194          0.2551178650987967 1.0000   
         C         C         1.0       0.19446242806372904           0.962406820287215  0.27781143979650896          1.0000   
         C         C         1.0       0.1908433806927805  0.9846584563448197  0.3013371501810675 1.0000   
         C         C         1.0       0.1650242197829661  0.013349817640197381         0.2955605822187118 1.0000   
         C         C         1.0       0.14218014951699026           0.02132446343571437          0.2648219140524307 1.0000   
         C         C         1.0       0.14198539403821958           0.9949726481361237 0.24162636733244222          1.0000   
         C         C         1.0       0.16760262025861175           0.9655463262267148 0.2474954115066826 1.0000   
         C         C         1.0       0.07470907548221827           0.04779122959789639          0.23219089567624296          1.0000   
         C         C         1.0       0.05189159019510659           0.07800602072830154          0.2175488101893507 1.0000   
         C         C         1.0       0.5781648552795744  0.9688620726450579  0.3526677676990904 1.0000   
         C         C         1.0       0.5797926849283735  0.9348951170123571  0.3684855526122307 1.0000   
         C         C         1.0       0.6141629762988937  0.9225445902579198  0.3873536281923611 1.0000   
         C         C         1.0       0.060683482202832296          0.009186580634278796         0.23137592225458273          1.0000   
         C         C         1.0       0.09768779633190958           0.05780523697550177          0.3022009950362556 1.0000   
         C         C         1.0       0.08370294510151875           0.07655831127299195          0.3212232649320111 1.0000   
         C         C         1.0       0.08291188055905217           0.11816670772042404          0.3213693236416572 1.0000   
         C         C         1.0       0.09389132715594423           0.13981833939616473          0.3017810500491667 1.0000   
         C         C         1.0       0.10729020866928961           0.1205322387162806 0.28310237585947146          1.0000   
         C         C         1.0       0.11028839652090369           0.07870789330361316          0.2830877675903531 1.0000   
         H         H         1.0       0.15640467635514377           0.05768130030869845          0.14776301357895733          1.0000   
         H         H         1.0       0.24716452670381509           0.04549868046435379          0.22874767820318923          1.0000   
         H         H         1.0       0.24222508542471108           0.9750651483566177 0.22609327753600988          1.0000   
         H         H         1.0       0.15030103680992785           0.9792708271069398 0.1404808857179814 1.0000   
         H         H         1.0       0.21453056506348372           0.08336444057224646          0.13721327114647083          1.0000   
         H         H         1.0       0.2009792192609824  0.11853823255808638           0.09211674465540143          1.0000   
         H         H         1.0       0.1521320396883564  0.2133315578556627  0.12687163684473624          1.0000   
         H         H         1.0       0.17310812133909212           0.17514635918582555          0.17636197595620665          1.0000   
         H         H         1.0       0.22534565795832742           0.105595582938256  0.25653552198628626          1.0000   
         H         H         1.0       0.18923879368366306           0.09083216390291127          0.2810125049606255 1.0000   
         H         H         1.0       0.09738706216462643           0.0774333201286257 0.19105834502231678          1.0000   
         H         H         1.0       0.13459858782739    0.10592214176432302           0.1706565960743976 1.0000   
         H         H         1.0       0.2077977895102923  0.9806816301734171  0.32492211482796   1.0000   
         H         H         1.0       0.16479990009075282           0.03300126034314266          0.3135862764751377 1.0000   
         H         H         1.0       0.12443550204710506           0.00035398380284412667       0.2179177551010632 1.0000   
         H         H         1.0       0.16722044657550653           0.9487523934826859 0.227532231463298  1.0000   
         H         H         1.0       0.061452589734152144          0.10678997379477839          0.22023449296099729          1.0000   
         H         H         1.0       0.5543733212178785  0.9847692218942956  0.33700034684517544          1.0000   
         H         H         1.0       0.6189095978907335  0.8957887736579451  0.40102793599224273          1.0000   
         H         H         1.0       0.07750024740809218           0.9859484180287141 0.24404754130172038          1.0000   
         H         H         1.0       0.09594945413540895           0.02553497207661981          0.2974261882195086 1.0000   
         H         H         1.0       0.07361543066520498           0.059217213318059736         0.33534218399666027          1.0000   
         H         H         1.0       0.09326239159938371           0.1725726194362931 0.30459676719315354          1.0000   
         H         H         1.0       0.11120518614854565           0.13628726576174177          0.26341285273068643          1.0000   
         C         C         1.0       0.2623956893819081  0.6736099111834392  0.5287606585221324 1.0000   
         C         C         1.0       0.2921451528559986  0.6692099428849949  0.5222943714135982 1.0000   
         C         C         1.0       0.3119033480128925  0.6343040345269618  0.5309656516945924 1.0000   
         C         C         1.0       0.3039308995912256  0.6047533772198465  0.5475631522928818 1.0000   
         C         C         1.0       0.27475146393744065           0.6131491972888305 0.5551823015208028 1.0000   
         C         C         1.0       0.25345303931278257           0.6458958807932695 0.5468740206727127 1.0000   
         H         H         1.0       0.3025161962257487  0.6880776892628002  0.5113032404791954 1.0000   
         H         H         1.0       0.33264175149377484           0.6279277218767901 0.524675172349986  1.0000   
         H         H         1.0       0.2649797427326136  0.5898820649147537  0.5669324750144265 1.0000   
         H         H         1.0       0.22982045398837397           0.649462143371701  0.5512852851437927 1.0000   
         C         C         1.0       0.31171651201944284           0.489164666530181  0.5671869712182711 1.0000   
         C         C         1.0       0.2988997843489914  0.5262919442316956  0.5522943191497377 1.0000   
         C         C         1.0       0.26625526267002936           0.5237129803677741 0.5272708365461937 1.0000   
         C         C         1.0       0.24562714771021837           0.4875074900859014 0.5186634020591335 1.0000   
         C         C         1.0       0.26227105045865795           0.4531634022371015 0.5307697259637701 1.0000   
         C         C         1.0       0.29429621296980646           0.4536606018899698 0.5544383394568847 1.0000   
         C         C         1.0       0.3267895889866789  0.563994284029845   0.5586457629785498 1.0000   
         C         C         1.0       0.3503210413990492  0.5728516379363012  0.5921937839472399 1.0000   
         C         C         1.0       0.34159087316197984           0.5637063684407358 0.616648582164432  1.0000   
         C         C         1.0       0.3599997016746356  0.5798334348380503  0.6458217803501861 1.0000   
         C         C         1.0       0.38884522609144845           0.6045131947120317 0.6517823977428163 1.0000   
         C         C         1.0       0.3975633242007846  0.6147805608095623  0.6272943312600792 1.0000   
         C         C         1.0       0.38044934142022957           0.5983247908493109 0.5976511020678263 1.0000   
         C         C         1.0       0.33186846582593704           0.5526499698764135 0.5049896361718248 1.0000   
         C         C         1.0       0.34743490247731945           0.5346091116731575 0.4873406122066535 1.0000   
         C         C         1.0       0.37848904860834576           0.5117693011150097 0.4985642177944507 1.0000   
         C         C         1.0       0.3930576905772559  0.508288800909597   0.5300176238912744 1.0000   
         C         C         1.0       0.37797898994642115           0.5266236235157208 0.5492461912901008 1.0000   
         C         C         1.0       0.3472685560031037  0.5495252853292106  0.5368732560160279 1.0000   
         C         C         1.0       0.39331372707511875           0.4891125400828006 0.475307501946487  1.0000   
         C         C         1.0       0.3348045855287784  0.3766742206584446  0.45537219048663863          1.0000   
         C         C         1.0       0.31757546712271995           0.41031424597739974          0.4382919698711755 1.0000   
         C         C         1.0       0.33809765075527787           0.4462859106199042 0.4436045707667803 1.0000   
         C         C         1.0       0.3715624267111803  0.4483984547549513  0.4671974508085168 1.0000   
         C         C         1.0       0.3846674986448182  0.41472254810604614           0.4850035785583056 1.0000   
         C         C         1.0       0.36802086602562745           0.379186461398291  0.47800114266999383          1.0000   
         C         C         1.0       0.4365985063750037  0.48037884482354126           0.48616522990357236          1.0000   
         C         C         1.0       0.46372431399236014           0.4990743426055868 0.512183621070572  1.0000   
         C         C         1.0       0.49979503068418574           0.4875940428432882 0.5201422630065242 1.0000   
         C         C         1.0       0.509340875684264   0.4620355172089444  0.5022085991041556 1.0000   
         C         C         1.0       0.4830280187532186  0.4399766641445894  0.4784803813894676 1.0000   
         C         C         1.0       0.44736794752201986           0.4505815287813529 0.4703151152476118 1.0000   
         C         C         1.0       0.3816765446132531  0.5077100688700837  0.416900736285889  1.0000   
         C         C         1.0       0.37890245943988976           0.5376138313303582 0.3962445219873581 1.0000   
         C         C         1.0       0.39015661409855784           0.5764979630052817 0.4057899505230061 1.0000   
         C         C         1.0       0.4053053551177226  0.5851719376198862  0.437485598780314  1.0000   
         C         C         1.0       0.40726186917555157           0.5562346639951878 0.45774776493616864          1.0000   
         C         C         1.0       0.39305767527308183           0.5185162383326802 0.4484639010469136 1.0000   
         H         H         1.0       0.3384174008753938  0.48753181837649606           0.5856823762220834 1.0000   
         H         H         1.0       0.2562819161512452  0.5493194901278252  0.5137865438056018 1.0000   
         H         H         1.0       0.22226668621121004           0.4844201499444851 0.49817705250911143          1.0000   
         H         H         1.0       0.3054131384870778  0.4252829838029422  0.5625673861582249 1.0000   
         H         H         1.0       0.31580015114924503           0.5513741720893969 0.6080801288633192 1.0000   
         H         H         1.0       0.35011330315956285           0.5767805810095579 0.6646500635167322 1.0000   
         H         H         1.0       0.41341458045982593           0.6413776447077677 0.6293684243869953 1.0000   
         H         H         1.0       0.38618052467073305           0.6118832146142271 0.5810614835330784 1.0000   
         H         H         1.0       0.30518453618336805           0.5647107162111566 0.493307026994487  1.0000   
         H         H         1.0       0.33042429883064456           0.5328841043857415 0.46248505829402375          1.0000   
         H         H         1.0       0.4152847349255921  0.48931702752080625           0.54206495192323   1.0000   
         H         H         1.0       0.39132571640475006           0.5201996000343383 0.57294606600273   1.0000   
         H         H         1.0       0.2943890287552066  0.4076949179914101  0.417946982439142  1.0000   
         H         H         1.0       0.32704197984076094           0.4706539542595695 0.42983874968467745          1.0000   
         H         H         1.0       0.40734809342598055           0.42042242607779706          0.5054173804445082 1.0000   
         H         H         1.0       0.37752909844178073           0.35557544057826185          0.49233712071081204          1.0000   
         H         H         1.0       0.46203566887350384           0.523778312358923  0.5277977686423261 1.0000   
         H         H         1.0       0.5200238773792988  0.4997641824809093  0.5396634618904989 1.0000   
         H         H         1.0       0.4870157898119607  0.41593233135184154           0.46388328815262264          1.0000   
         H         H         1.0       0.4293780937165792  0.4403058776616052  0.44724363610325013          1.0000   
         H         H         1.0       0.3740880543447252  0.4764918396099009  0.4086779379327392 1.0000   
         H         H         1.0       0.3717105605568087  0.5254493224128776  0.3729431911618199 1.0000   
         H         H         1.0       0.4131229670175725  0.6164745833678964  0.44544745105963074          1.0000   
         H         H         1.0       0.4166237599642902  0.5651645445160474  0.48220391501698606          1.0000   
         C         C         1.0       0.5151448507990852  0.5875300911161757  0.19345225398399996          1.0000   
         C         C         1.0       0.49852145623585425           0.5514141296709228 0.1821460066272722 1.0000   
         C         C         1.0       0.5074999742729851  0.5184286876146219  0.2001249395273402 1.0000   
         C         C         1.0       0.5337894829903069  0.5201105444480534  0.22857067298882497          1.0000   
         C         C         1.0       0.5502278090761488  0.5569035226886379  0.24045938638249095          1.0000   
         C         C         1.0       0.5414453166367131  0.5904786155418236  0.22236464041467663          1.0000   
         H         H         1.0       0.472858658865914   0.5485443983137122  0.16244235009777808          1.0000   
         H         H         1.0       0.49055294976632785           0.4921457903508132 0.19296867194678108          1.0000   
         H         H         1.0       0.5653930189531959  0.5606681244164192  0.2645154294548226 1.0000   
         H         H         1.0       0.5519404350599068  0.6200678858031047  0.2310968905583001 1.0000   
         C         C         1.0       0.6018465664660051  0.4805657324664062  0.28011742574310866          1.0000   
         C         C         1.0       0.5681584897839886  0.48667730639208623           0.28241782326219794          1.0000   
         C         C         1.0       0.5682043083822159  0.4951467522214653  0.31119636259201966          1.0000   
         C         C         1.0       0.6006421504322282  0.5019840698196893  0.3352283247816718 1.0000   
         C         C         1.0       0.6334970901321183  0.498330021064382   0.33214570933551324          1.0000   
         C         C         1.0       0.6337019973584257  0.48868775505766304           0.30441402067524287          1.0000   
         C         C         1.0       0.5330505968914439  0.48478399978675735           0.2512390579602381 1.0000   
         C         C         1.0       0.5365532404096318  0.43690822559152453           0.24273571866326504          1.0000   
         C         C         1.0       0.5377675091137398  0.4062408318817763  0.26191251683391087          1.0000   
         C         C         1.0       0.5326208475230573  0.3680676407473176  0.25161359851881626          1.0000   
         C         C         1.0       0.5297426893209378  0.35733873282010314           0.22290796169166016          1.0000   
         C         C         1.0       0.5293025161995041  0.3860760926135136  0.20405907261584078          1.0000   
         C         C         1.0       0.5338481549883585  0.42599922060463535           0.21317760863572827          1.0000   
         C         C         1.0       0.4877369012264956  0.5233852943680719  0.26862736785346997          1.0000   
         C         C         1.0       0.455374105119552   0.5311536415586848  0.2687190910372916 1.0000   
         C         C         1.0       0.4262511287285039  0.5049548203202969  0.253581988751111  1.0000   
         C         C         1.0       0.4297586614436057  0.4750541254034738  0.23388453762315417          1.0000   
         C         C         1.0       0.4642687861467812  0.46662075157887045           0.23493738766020184          1.0000   
         C         C         1.0       0.4946364747529173  0.4910685195862445  0.2527074641879067 1.0000   
         C         C         1.0       0.393536279291307   0.49841914559688166           0.2639075052335247 1.0000   
         C         C         1.0       0.37736651981087205           0.3692621666375114 0.27564954669978653          1.0000   
         C         C         1.0       0.40799403336238377           0.38893423778991415          0.29629796608783376          1.0000   
         C         C         1.0       0.41486599311741473           0.42757867911640995          0.29035958647556404          1.0000   
         C         C         1.0       0.389483200700818   0.4496933502991122  0.2677812552653827 1.0000   
         C         C         1.0       0.3607913680979601  0.4268011347617627  0.24656133097501087          1.0000   
         C         C         1.0       0.35398887175433097           0.38829922014216545          0.2504118639068339 1.0000   
         C         C         1.0       0.3534600947390675  0.5114297459635051  0.24118326037863005          1.0000   
         C         C         1.0       0.3467645856352373  0.5206281018523938  0.2106209529734181 1.0000   
         C         C         1.0       0.3116987138336429  0.5275095185365979  0.19077311199812536          1.0000   
         C         C         1.0       0.2816021954280882  0.5199606562253991  0.19748193463542738          1.0000   
         C         C         1.0       0.28858460705164984           0.508883825026354  0.22738108346958616          1.0000   
         C         C         1.0       0.3232608636376726  0.5076968067269128  0.24879376029736525          1.0000   
         C         C         1.0       0.4156411719167262  0.514685619338505   0.32395728037443017          1.0000   
         C         C         1.0       0.4270035451520186  0.541759682525379   0.3484144161186884 1.0000   
         C         C         1.0       0.4150319298412552  0.5803041123785022  0.34337376318578267          1.0000   
         C         C         1.0       0.4016495657330923  0.5934828498538425  0.3148177677884981 1.0000   
         C         C         1.0       0.39396892075122836           0.5680397670015154 0.2891863117182391 1.0000   
         C         C         1.0       0.39872633789194745           0.5274396015069844 0.2937032478813049 1.0000   
         H         H         1.0       0.6030428136178999  0.4742411702701868  0.25773935976375356          1.0000   
         H         H         1.0       0.543226191279522   0.4957619586902417  0.31485127174985694          1.0000   
         H         H         1.0       0.6024201843133576  0.5083180515458692  0.3576016708987766 1.0000   
         H         H         1.0       0.6592036056292155  0.4849364785610639  0.30198564442787806          1.0000   
         H         H         1.0       0.5444603077943719  0.41395373123357    0.28649822639750677          1.0000   
         H         H         1.0       0.5333580422981974  0.34498729080607266           0.26809371368163787          1.0000   
         H         H         1.0       0.5267632643250052  0.3801693827572216  0.18073621424406927          1.0000   
         H         H         1.0       0.537639729170208   0.4478978222620097  0.19773244588312794          1.0000   
         H         H         1.0       0.5107548774441458  0.5458285979672104  0.2792741308265506 1.0000   
         H         H         1.0       0.45471712589783986           0.5557365656132651 0.2846703461255208 1.0000   
         H         H         1.0       0.4095702612947941  0.4530652224005114  0.21895435779899258          1.0000   
         H         H         1.0       0.46509084325635297           0.44120692673881984          0.22182242037120373          1.0000   
         H         H         1.0       0.4285790407406533  0.37256099509350643           0.31395285563110786          1.0000   
         H         H         1.0       0.4419778663203404  0.4406801744415299  0.30394148261034565          1.0000   
         H         H         1.0       0.34487237594079023           0.43800076829830104          0.2245164649540492 1.0000   
         H         H         1.0       0.33210211769357545           0.3710092693566489 0.2340828867906329 1.0000   
         H         H         1.0       0.3681419258263662  0.5272601078317632  0.20176953688489005          1.0000   
         H         H         1.0       0.30662319488217443           0.534164165272823  0.16703417429717166          1.0000   
         H         H         1.0       0.2667954808828423  0.4983314440379461  0.2329448952351861 1.0000   
         H         H         1.0       0.32606698182576294           0.5024158969902078 0.27262183356045694          1.0000   
         H         H         1.0       0.42573486792249243           0.4860761337041873 0.32940700090994557          1.0000   
         H         H         1.0       0.4415472459645282  0.5292510521276474  0.3701909738873316 1.0000   
         H         H         1.0       0.39252838844274673           0.6239821109975279 0.3123339806894053 1.0000   
         H         H         1.0       0.3811569065350141  0.5801390329074163  0.26723103561309824          1.0000   
         C         C         1.0       0.22440417747240846           0.3608059587653011 0.47355040583428826          1.0000   
         C         C         1.0       0.18998702174721716           0.36712611669397055          0.4557738143429212 1.0000   
         C         C         1.0       0.17078636869993438           0.33561006253425774          0.43704987974677345          1.0000   
         C         C         1.0       0.18503331060667755           0.2966356328117873 0.43887914209424894          1.0000   
         C         C         1.0       0.2187947775132649  0.29067078367696575           0.4643339815559953 1.0000   
         C         C         1.0       0.23868909931331658           0.32414031388984726          0.48049204184500083          1.0000   
         H         H         1.0       0.18124037315124844           0.39648320111467406          0.45556720808930384          1.0000   
         H         H         1.0       0.49735279728507015           0.33619692421098524          0.38769588192901494          1.0000   
         H         H         1.0       0.2300860907309833  0.26091924316236437           0.469795344970107  1.0000   
         H         H         1.0       0.2656602164747354  0.3217656538442073  0.5000179110271037 1.0000   
         C         C         1.0       0.21434352695682468           0.23126170897563653          0.4084524413477369 1.0000   
         C         C         1.0       0.5245460482055256  0.21793591087539582           0.3687705224215264 1.0000   
         C         C         1.0       0.5011223608188968  0.18656696217641433           0.35256454572418483          1.0000   
         C         C         1.0       0.5089603838740681  0.16156430514762932           0.3328899752791611 1.0000   
         C         C         1.0       0.21520449461735391           0.16286000380871568          0.3900516656556685 1.0000   
         C         C         1.0       0.2333756361001383  0.20049464039880982           0.4022845416724961 1.0000   
         C         C         1.0       0.5094330109287902  0.2551227504409665  0.3842080831776362 1.0000   
         C         C         1.0       0.47510651849253094           0.2693649778551516 0.35620912732695953          1.0000   
         C         C         1.0       0.4407882131201104  0.2553786529944697  0.35180542199290044          1.0000   
         C         C         1.0       0.41314930046879894           0.25586087314250755          0.3243561850080002 1.0000   
         C         C         1.0       0.4150157554263556  0.2815463267115281  0.3032344484463255 1.0000   
         C         C         1.0       0.4480822068390581  0.29640672992338873           0.3067456441590588 1.0000   
         C         C         1.0       0.47739610838316626           0.29028291633802117          0.3319696458774252 1.0000   
         C         C         1.0       0.5168532825211388  0.2129848328746204  0.43163734308663126          1.0000   
         C         C         1.0       0.5199768436332587  0.212369197649209   0.46086794567485007          1.0000   
         C         C         1.0       0.5089123355779556  0.24583877814684632           0.47289765840564796          1.0000   
         C         C         1.0       0.48550319401054154           0.2719652923271112 0.45193595718662277          1.0000   
         C         C         1.0       0.4798853006334885  0.27076956621599707           0.42175831971565625          1.0000   
         C         C         1.0       0.49819143386537307           0.2422377152425116 0.4110739372232766 1.0000   
         C         C         1.0       0.5252969176100766  0.2557391183398154  0.5080889312269479 1.0000   
         C         C         1.0       0.4534615564341156  0.21769214521587396           0.5498507591329289 1.0000   
         C         C         1.0       0.46590916494572443           0.1888787980310907 0.5355394375057498 1.0000   
         C         C         1.0       0.48621681071643286           0.20189058872902726          0.5202849382633529 1.0000   
         C         C         1.0       0.4935654554345917  0.24324313401561404           0.5184434660598893 1.0000   
         C         C         1.0       0.47392921313766306           0.2700253483548441 0.5270485917382978 1.0000   
         C         C         1.0       0.4544507897384251  0.2579338521774088  0.5435393266385892 1.0000   
         C         C         1.0       0.5389567175551622  0.302505070192102   0.5171852734025469 1.0000   
         C         C         1.0       0.5498728304277072  0.3230866416321263  0.4977595487720356 1.0000   
         C         C         1.0       0.5613349020016186  0.36284215176336887           0.504443715729069  1.0000   
         C         C         1.0       0.5593701290916632  0.38216615693637074           0.5292533457296537 1.0000   
         C         C         1.0       0.5538621423916311  0.36098176123074394           0.5523183507556502 1.0000   
         C         C         1.0       0.5435141026133092  0.3215722990708116  0.5461990596678067 1.0000   
         C         C         1.0       0.5739541897787134  0.21884629452096335           0.5542399570434751 1.0000   
         C         C         1.0       0.6060609402583242  0.20037366908853108           0.5684678374914139 1.0000   
         C         C         1.0       0.6317388515894057  0.20043882504831134           0.5561217657889435 1.0000   
         C         C         1.0       0.16684044779463178           0.23807516636161724          0.573339909782798  1.0000   
         C         C         1.0       0.5917623473393729  0.23856318440287974           0.515108769776285  1.0000   
         C         C         1.0       0.5655667156212412  0.23751162028777176           0.5267818434760417 1.0000   
         H         H         1.0       0.22694434634576613           0.26026059981189464          0.41812323039799615          1.0000   
         H         H         1.0       0.4733105466871922  0.18417211725875202           0.3523597103728807 1.0000   
         H         H         1.0       0.48793705287326866           0.14082170141590053          0.317592897080088  1.0000   
         H         H         1.0       0.26184780188873785           0.20158954217042618          0.40674377985186666          1.0000   
         H         H         1.0       0.43576497414651927           0.23699806758919384          0.367228335315351  1.0000   
         H         H         1.0       0.38782128620667233           0.24573981282154359          0.3233330048535687 1.0000   
         H         H         1.0       0.4505934121145608  0.3126439045527207  0.2871495733103785 1.0000   
         H         H         1.0       0.1733495267508012  0.3188047477425767  0.38122247864246517          1.0000   
         H         H         1.0       0.16775951978879702           0.1999395634558719 0.4556035159034579 1.0000   
         H         H         1.0       0.5358968655611077  0.19183060629062693           0.47692162642616764          1.0000   
         H         H         1.0       0.477774107005249   0.29795603156627826           0.46303313713769195          1.0000   
         H         H         1.0       0.4661951553515167  0.2945157684497304  0.4079785618920108 1.0000   
         H         H         1.0       0.4647635668044235  0.1573529996508602  0.5396509316647138 1.0000   
         H         H         1.0       0.5029101725885118  0.1816717060171294  0.5133464576548716 1.0000   
         H         H         1.0       0.47307226315758455           0.3009405213742435 0.5233387224006244 1.0000   
         H         H         1.0       0.4466832248342649  0.2803567561830168  0.5561155700519782 1.0000   
         H         H         1.0       0.5499413820357308  0.31093963057462304           0.47791628814520604          1.0000   
         H         H         1.0       0.5684494677485622  0.3821529601170709  0.48897110442122765          1.0000   
         H         H         1.0       0.5581652665897384  0.3778425382865584  0.5742518386230628 1.0000   
         H         H         1.0       0.5375251443848161  0.306289040585716   0.5625046328999247 1.0000   
         H         H         1.0       0.5567614828332749  0.21931958386801728           0.5668097319654699 1.0000   
         H         H         1.0       0.5065723980033041  0.3355071882835902  0.0695024446691157 1.0000   
         H         H         1.0       0.19291762989618902           0.2552465402993691 0.5836257528251372 1.0000   
         H         H         1.0       0.15256229662334836           0.2605878246787492 0.5285646551841213 1.0000   
         C         C         1.0       0.6753741998358324  0.4242837868699911  0.36185010388449823          1.0000   
         C         C         1.0       0.16844023962301136           0.3717593153156269 0.2741220004965511 1.0000   
         C         C         1.0       0.19434337943486826           0.34605221029412175          0.28948678952787915          1.0000   
         C         C         1.0       0.19105173107873927           0.30734084979447696          0.2811656159532416 1.0000   
         C         C         1.0       0.16030328575239422           0.2944675128425167 0.2573983918296698 1.0000   
         C         C         1.0       0.6417596491012518  0.40781490751798455           0.3457520525643851 1.0000   
         H         H         1.0       0.16783323165866235           0.4030166301393304 0.28224262757163265          1.0000   
         H         H         1.0       0.21804994573711836           0.35403939249994126          0.30965593121808704          1.0000   
         H         H         1.0       0.6089040683522526  0.3636470004492507  0.3116704626161109 1.0000   
         H         H         1.0       0.617703381752951   0.42108065346419404           0.3440881809655336 1.0000   
         C         C         1.0       0.18754800019644746           0.22471602214000194          0.3046895256019904 1.0000   
         C         C         1.0       0.2180630376434534  0.23440302269753083           0.29850227293056886          1.0000   
         C         C         1.0       0.24277711109977101           0.20619256239072561          0.3035051825680008 1.0000   
         C         C         1.0       0.2395758199989436  0.17082188700825535           0.31576017194850226          1.0000   
         C         C         1.0       0.21277014089510582           0.16195403620745102          0.3240703143794083 1.0000   
         C         C         1.0       0.18493591018461564           0.188864030297858  0.31619481919769565          1.0000   
         C         C         1.0       0.22680036906605577           0.2809368561071635 0.2933677803655102 1.0000   
         C         C         1.0       0.2552591781328734  0.29196094092219804           0.32775282176678655          1.0000   
         C         C         1.0       0.2926528468956874  0.2936397087468222  0.3369039237102516 1.0000   
         C         C         1.0       0.3151357228735635  0.29948480250881837           0.36706355043953004          1.0000   
         C         C         1.0       0.30174104705839205           0.3052254418448964 0.38930800556414186          1.0000   
         C         C         1.0       0.26570011756956086           0.30083897567463164          0.38061214813280225          1.0000   
         C         C         1.0       0.24314922972689748           0.2939563396275153 0.3511642009829419 1.0000   
         C         C         1.0       0.22790730978734836           0.2570143384795503 0.24246865816576776          1.0000   
         C         C         1.0       0.22952842012770833           0.2649581467778737 0.21496259796306189          1.0000   
         C         C         1.0       0.2423338502719026  0.30264717332238633           0.2099562872850095 1.0000   
         C         C         1.0       0.2561967458508574  0.3287595724672442  0.23512798795381312          1.0000   
         C         C         1.0       0.25634953168178587           0.32088221013890356          0.26376053800223637          1.0000   
         C         C         1.0       0.23955122493270478           0.2862042609552572 0.2668669583097529 1.0000   
         C         C         1.0       0.23337620295987815           0.3155498107979292 0.17545311107866246          1.0000   
         C         C         1.0       0.31162449982656054           0.2280162463392372 0.17582152765465958          1.0000   
         C         C         1.0       0.27492845349126543           0.21967590297794415          0.15881848794395634          1.0000   
         C         C         1.0       0.25174916943372266           0.24946862032246866          0.15633218084160452          1.0000   
         C         C         1.0       0.26167997412616095           0.2870887674885147 0.17047707443800256          1.0000   
         C         C         1.0       0.29875555819989225           0.2951831641385379 0.18342697993861118          1.0000   
         C         C         1.0       0.32291974891153785           0.2654705833172907 0.18742877554069115          1.0000   
         C         C         1.0       0.2367300348273011  0.36181665497156434           0.17139829926855035          1.0000   
         C         C         1.0       0.21697716590233637           0.39035704893110085          0.18032830681824086          1.0000   
         C         C         1.0       0.21902590630174362           0.43001943023440314          0.17487899630606388          1.0000   
         C         C         1.0       0.23811695447379103           0.44148424828077026          0.15815534066511946          1.0000   
         C         C         1.0       0.2542792326347796  0.4134261919122913  0.14635064305617781          1.0000   
         C         C         1.0       0.25404924049287986           0.3743387027886489 0.15336205450518633          1.0000   
         C         C         1.0       0.1803038902085633  0.29823280922512174           0.12368898596827016          1.0000   
         C         C         1.0       0.1439824481242675  0.2877681726858646  0.10615461956112959          1.0000   
         C         C         1.0       0.11935679729873958           0.28634521397433016          0.12052925659323364          1.0000   
         C         C         1.0       0.1306678175346106  0.2960139710289307  0.15121695059664572          1.0000   
         C         C         1.0       0.16505038815268674           0.308931690459083  0.16836171692487945          1.0000   
         C         C         1.0       0.19171021520883594           0.30689651302771465          0.15542416001866804          1.0000   
         H         H         1.0       0.1666299344521527  0.24562289960528735           0.30111458570081023          1.0000   
         H         H         1.0       0.2675120144697994  0.21512482725823004           0.30238935062686595          1.0000   
         H         H         1.0       0.26257417921609333           0.15424484047035214          0.32706025887051604          1.0000   
         H         H         1.0       0.5401038968357353  0.26717387923434477           0.30229354913043577          1.0000   
         H         H         1.0       0.3063466190883337  0.29020892853616054           0.32182937172442405          1.0000   
         H         H         1.0       0.34428064670461866           0.29489859399034574          0.3747742153358491 1.0000   
         H         H         1.0       0.2521662435952085  0.3004833035697155  0.3963073848267175 1.0000   
         H         H         1.0       0.21513858835322136           0.29128471513324566          0.3477684567389605 1.0000   
         H         H         1.0       0.21216836842064818           0.23090204188268304          0.24221458947662386          1.0000   
         H         H         1.0       0.21691861909430343           0.24493032376354215          0.19583695403357765          1.0000   
         H         H         1.0       0.2634565666433036  0.35922976362286846           0.23185616937025533          1.0000   
         H         H         1.0       0.2640861474862835  0.344854802005291   0.2826777015643187 1.0000   
         H         H         1.0       0.2667890259997056  0.18879747223386356           0.15178061436449355          1.0000   
         H         H         1.0       0.2225615600241733  0.23879780744682413           0.1468853547857873 1.0000   
         H         H         1.0       0.30627359508720636           0.32489025687459155          0.1929812833546648 1.0000   
         H         H         1.0       0.35131222006402996           0.27018756048585446          0.19984102205802912          1.0000   
         H         H         1.0       0.20081707703284002           0.3796014271690304 0.1924361793192137 1.0000   
         H         H         1.0       0.2026569068953448  0.4492235736082935  0.18173878498368962          1.0000   
         H         H         1.0       0.26750517284922426           0.4222961219485988 0.13303825777256126          1.0000   
         H         H         1.0       0.2618383451794407  0.3546093502698536  0.1393176518217049 1.0000   
         H         H         1.0       0.19949413839170996           0.30124500793593695          0.11323335439602489          1.0000   
         H         H         1.0       0.13607118110767655           0.28815845102191046          0.08119382581018585          1.0000   
         H         H         1.0       0.11203552777589419           0.29187064255103284          0.160160066869784  1.0000   
         H         H         1.0       0.17404451006105842           0.31919017858420123          0.19271138408901295          1.0000   
         C         C         1.0       0.04665658799147982           0.2858856963854999 0.10290564957097746          1.0000   
         C         C         1.0       0.08124630012120894           0.2655433747902836 0.10156329273398113          1.0000   
         H         H         1.0       0.05157079379585986           0.31867528728045713          0.11033854999056868          1.0000   
         H         H         1.0       0.03726846854181474           0.270275783379981  0.12009091573598418          1.0000   
         H         H         1.0       0.08498161420859783           0.23792231970127412          0.11485311769372551          1.0000   
         H         H         1.0       0.07922546873763275           0.25628800497211224          0.07799473648738008          1.0000   
         C         C         1.0       0.21414419316415378           0.1234398664260033 0.341387170570947  1.0000   
         C         C         1.0       0.5404897951762204  0.16150612101865042           0.2967260322237949 1.0000   
         H         H         1.0       0.18678806081547353           0.1122653018192139 0.33472916011687537          1.0000   
         H         H         1.0       0.22949843201156986           0.09832451274387566          0.33591839742162105          1.0000   
         H         H         1.0       0.5165885339093184  0.14070121538514374           0.28357797790108896          1.0000   
         H         H         1.0       0.2607998952492006  0.1347246101391388  0.38229655015341013          1.0000   
         C         C         1.0       0.24342929950417522           0.5203478122379739 0.17387034163395418          1.0000   
         C         C         1.0       0.23740626461812056           0.48724526996605055          0.15016689196057026          1.0000   
         H         H         1.0       0.22284314719620232           0.5242824910410869 0.18559574840610202          1.0000   
         H         H         1.0       0.2416939531685639  0.5474841836173578  0.16014393650346462          1.0000   
         H         H         1.0       0.2100175585420567  0.49014293324814695           0.13006313391804783          1.0000   
         H         H         1.0       0.2583829449552946  0.4928593722117025  0.1413645045317318 1.0000   
         C         C         1.0       0.6766751524929685  0.46323525069716576           0.3790803170030522 1.0000   
         C         C         1.0       0.671780570371413   0.4997334917096003  0.35932458740625367          1.0000   
         H         H         1.0       0.7012470655984283  0.46641823269123656           0.3994426690702736 1.0000   
         H         H         1.0       0.6552700851660112  0.4618902341385211  0.3890848548374363 1.0000   
         H         H         1.0       0.6927669771111323  0.499333196666917   0.34954068411448935          1.0000   
         H         H         1.0       0.6741960103496227  0.5255647649930119  0.3761770761758782 1.0000   
         C         C         1.0       0.3664850514593124  0.32814886258122    0.2830496796144812 1.0000   
         C         C         1.0       0.38285938259622904           0.2909121547147083 0.2752304525225342 1.0000   
         H         H         1.0       0.3692317441780716  0.33061475049357    0.3071039733525561 1.0000   
         H         H         1.0       0.33644836848016774           0.3231864326886314 0.268195624242721  1.0000   
         H         H         1.0       0.3886425708256096  0.2914289363017427  0.25381205309509014          1.0000   
         H         H         1.0       0.365162686077031   0.2641344773438463  0.2718151761685594 1.0000   
         C         C         1.0       0.24392111636159194           0.41108489683281124          0.5188408466845773 1.0000   
         C         C         1.0       0.2481855418758584  0.39654205145328286           0.48941126812728303          1.0000   
         H         H         1.0       0.21458776272699043           0.4145205143059302 0.5135542919513388 1.0000   
         H         H         1.0       0.25595871200324766           0.38777084516377247          0.5367245125669998 1.0000   
         H         H         1.0       0.27737374703176065           0.3903853719681464 0.49490455278684087          1.0000   
         H         H         1.0       0.2451134964747183  0.4231099192971002  0.47372784958475717          1.0000   
         C         C         1.0       0.5464520761238484  0.45555266722328613           0.5079961276636323 1.0000   
         C         C         1.0       0.5657546540015037  0.42850934946387226           0.5349422540257182 1.0000   
         H         H         1.0       0.5511215186927603  0.4410816992856465  0.4885448540128696 1.0000   
         H         H         1.0       0.5616092463147294  0.48753654391731654           0.5158972204821035 1.0000   
         H         H         1.0       0.5952070947374868  0.43436402135320523           0.5424636423136374 1.0000   
         H         H         1.0       0.5604581073514715  0.43673326161239223           0.5548538542139053 1.0000   
         C         C         1.0       0.32516750051239074           0.3059402280453402 0.42476127331282876          1.0000   
         C         C         1.0       0.3173243010197517  0.33634210175331136           0.4476491347856091 1.0000   
         H         H         1.0       0.3246911609911207  0.27560542827727746           0.43181969539109   1.0000   
         H         H         1.0       0.3528892443762691  0.31013682549571503           0.42640087133334037          1.0000   
         H         H         1.0       0.3201759475537524  0.32049616325641095           0.46800440799276416          1.0000   
         H         H         1.0       0.2885692784883476  0.3398715703326116  0.4386829858027653 1.0000   
         C         C         1.0       0.48421526057565045           0.2993597632631489 0.2039926340350507 1.0000   
         C         C         1.0       0.5240128564977622  0.31248150708389083           0.21181338668592764          1.0000   
         H         H         1.0       0.48668079875855547           0.2672197821965255 0.1983705173602895 1.0000   
         H         H         1.0       0.480666385031636   0.2990558303268702  0.22684219727429172          1.0000   
         H         H         1.0       0.4498935571171286  0.6703566391966607  0.7119731150230575 1.0000   
         H         H         1.0       0.458743665207801   0.6496283898186416  0.6819776373973883 1.0000   
         C         C         1.0       0.39059380139269156           0.607058060675796  0.3818025544791893 1.0000   
         C         C         1.0       0.42275036289230444           0.6062769847658813 0.3718506899595128 1.0000   
         H         H         1.0       0.36320114504311823           0.6075201502993116 0.3616689625116317 1.0000   
         H         H         1.0       0.39336127276453425           0.6373865117220103 0.3921381549981414 1.0000   
         H         H         1.0       0.4477771253602484  0.597581248971914   0.38953731489894333          1.0000   
         H         H         1.0       0.4253547785793931  0.6383719048618709  0.3670526527798311 1.0000   
         C         C         1.0       0.3474521133384468  0.18270897384375948           0.21887678079055511          1.0000   
         C         C         1.0       0.34031959668673006           0.19518502587866626          0.18606790252456282          1.0000   
         H         H         1.0       0.3530068587294531  0.21118064851721555           0.23344328000869838          1.0000   
         H         H         1.0       0.3741907139623797  0.16734711839002903           0.22910292969078014          1.0000   
         H         H         1.0       0.3306880210312024  0.17071721266825476           0.16924020148152016          1.0000   
         H         H         1.0       0.364479113178409   0.20885809044957246           0.18269266535076945          1.0000   
         C         C         1.0       0.4718751078801272  0.20658598414621412           0.6090956566911863 1.0000   
         C         C         1.0       0.44204852907177844           0.20339783169884085          0.5763313459895975 1.0000   
         H         H         1.0       0.4601087670601927  0.20746897305661108           0.6268759634767561 1.0000   
         H         H         1.0       0.4872851332669604  0.23549652118761247           0.6134442974148349 1.0000   
         H         H         1.0       0.4203645018590066  0.22365491208309912           0.5773467357679847 1.0000   
         H         H         1.0       0.42783143455870204           0.17292136340528716          0.5716540097948595 1.0000   
         C         C         1.0       0.6287132551261267  0.8765486858246474  0.13849165573314773          1.0000   
         C         C         1.0       0.16019370521273027           0.19003725903997326          0.07230304443202207          1.0000   
         H         H         1.0       0.6094086867551222  0.8762058471598203  0.15094050014752727          1.0000   
         H         H         1.0       0.6229372499532007  0.8478222014206029  0.125254120120313  1.0000   
         H         H         1.0       0.17441180241125825           0.1760389152156403 0.05720958798186393          1.0000   
         H         H         1.0       0.16662760182581782           0.2222495253073551 0.0758986525060712 1.0000   
         C         C         1.0       0.0719476640957131  0.1442677629714455  0.34281831187791734          1.0000   
         C         C         1.0       0.05292246721199053           0.12861734158392202          0.3632953172453112 1.0000   
         H         H         1.0       0.09791524992248177           0.16006251166139251          0.35832712490682794          1.0000   
         H         H         1.0       0.051969203772299834          0.1651228264368465 0.3288008019336953 1.0000   
         H         H         1.0       0.03167479330588675           0.10945012444178781          0.3455607536627039 1.0000   
         H         H         1.0       0.04149270879772478           0.15624950598337062          0.3688874224647538 1.0000   
         C         C         1.0       0.46751669585976424           0.6450749816322631 0.18306505995344832          1.0000   
         C         C         1.0       0.5001802006348172  0.6260593230466872  0.17675020199654365          1.0000   
         H         H         1.0       0.46194869771228525           0.6290952113829757 0.20093327653483772          1.0000   
         H         H         1.0       0.44387494663554916           0.6400729433687042 0.16138407094512558          1.0000   
         H         H         1.0       0.5206446783609726  0.6495481656672807  0.18077940568173528          1.0000   
         H         H         1.0       0.4897827787410101  0.6173893030265731  0.15189775110315315          1.0000   
         C         C         1.0       0.21361838742912106           0.9058998547220092 0.16363976767279043          1.0000   
         C         C         1.0       0.19153907303619958           0.9258060064564285 0.1787542587370063 1.0000   
         H         H         1.0       0.1992948647071829  0.8805121778544563  0.14729670421345797          1.0000   
         H         H         1.0       0.21559682450172574           0.9257985116166115 0.14552231372811864          1.0000   
         H         H         1.0       0.20268421442366194           0.9110908180059509 0.2010836064364338 1.0000   
         H         H         1.0       0.1631738487811258  0.9179530971053215  0.1673522073217653 1.0000   
         C         C         1.0       0.5459385183407534  0.912712539128411   0.3678482351347288 1.0000   
         C         C         1.0       0.541015632519204   0.8683796243875215  0.3567924949000408 1.0000   
         H         H         1.0       0.520994832570957   0.9312878359743929  0.35274226503794115          1.0000   
         H         H         1.0       0.5494760337403676  0.9179635089138654  0.3911695407417866 1.0000   
         H         H         1.0       0.5249907630370244  0.853404220816666   0.3677866450208597 1.0000   
         H         H         1.0       0.5681793540721372  0.8566647544098273  0.37065292631531854          1.0000   
         C         C         1.0       0.43897076663893125           0.963553710683118  0.3591752906873571 1.0000   
         C         C         1.0       0.4374643333443377  0.9718446860937218  0.39058905775447006          1.0000   
         H         H         1.0       0.46764595336624115           0.9647538926373898 0.3627135104876103 1.0000   
         H         H         1.0       0.4262042169443172  0.9887312933533999  0.34380002711153707          1.0000   
         H         H         1.0       0.41436344463701447           0.9881871060911473 0.39162755668606547          1.0000   
         H         H         1.0       0.43402212405447965           0.942763695549735  0.4013701316213133 1.0000   
         C         C         1.0       0.23621756198296853           0.708203844386064  0.5157896279370768 1.0000   
         C         C         1.0       0.23217085166268073           0.7389110348158133 0.5403091645227538 1.0000   
         H         H         1.0       0.24174910427029478           0.7228847405706543 0.49744761953474753          1.0000   
         H         H         1.0       0.20800930748574645           0.6928473179078528 0.5020739307093796 1.0000   
         H         H         1.0       0.23610044484312576           0.7254257401426114 0.5622514639298729 1.0000   
         H         H         1.0       0.20727320460406803           0.7536666851652126 0.5308052993804997 1.0000   
         C         C         1.0       0.29464084168347193           0.06652453078167819          0.5323036196228174 1.0000   
         C         C         1.0       0.3191068762012268  0.038867762714759335         0.5588063626374948 1.0000   
         H         H         1.0       0.30255009753374024           0.06536596536407058          0.5116727635476229 1.0000   
         H         H         1.0       0.3024628596613     0.09676015173363273           0.5394436421103816 1.0000   
         H         H         1.0       0.3183851173564414  0.04594907292963146           0.5816936077999177 1.0000   
         H         H         1.0       0.34727471940187205           0.04789558633011026          0.5627207042549427 1.0000   
         C         C         1.0       0.45941078404526076           0.9368082957993711 0.4862845380702185 1.0000   
         C         C         1.0       0.46264835234012003           0.9308227495421112 0.5194098406222016 1.0000   
         H         H         1.0       0.48487059250173775           0.9288809792054179 0.4842200562241123 1.0000   
         H         H         1.0       0.45277089324551373           0.9682800541441879 0.47937714351810035          1.0000   
         H         H         1.0       0.4364516070574546  0.9288175395660131  0.5193107012592293 1.0000   
         H         H         1.0       0.4760228550954117  0.9017628344981733  0.5266906349915171 1.0000   
         C         C         1.0       0.22281679568010346           0.89180671696187   0.2934292329610831 1.0000   
         C         C         1.0       0.22663106754090032           0.9351144177624535 0.2832226990032696 1.0000   
         H         H         1.0       0.19631444741872206           0.8918430041164529 0.2960104987740524 1.0000   
         H         H         1.0       0.22025635660956255           0.8702786021827175 0.2733386830878496 1.0000   
         H         H         1.0       0.22739865837131526           0.9312965000694993 0.2606698248436319 1.0000   
         H         H         1.0       0.2511364751208306  0.9488099509695018  0.299920784318223  1.0000   
         C         C         1.0       0.5293805267248625  0.8405685696923813  0.1220481391431314 1.0000   
         C         C         1.0       0.520174326592327   0.8785976514842337  0.1366715992658407 1.0000   
         H         H         1.0       0.5373315349374964  0.8436966208223309  0.10346259070830775          1.0000   
         H         H         1.0       0.55169269696132    0.82636866289801    0.14036573765200785          1.0000   
         H         H         1.0       0.5007115761754192  0.8959137773035091  0.11694623765866452          1.0000   
         H         H         1.0       0.5438151442319578  0.9000993266844634  0.14779840607973938          1.0000   
         C         C         1.0       0.31630230809525267           0.7037642822041612 0.31314183332797674          1.0000   
         C         C         1.0       0.3400354671470286  0.6890138783510671  0.3464209182181368 1.0000   
         H         H         1.0       0.28895491817503216           0.7099166224447442 0.3133631156209509 1.0000   
         H         H         1.0       0.31487729143136145           0.6820643056120829 0.29514642673754343          1.0000   
         H         H         1.0       0.3654484340636164  0.6820224970609422  0.34434537138462207          1.0000   
         H         H         1.0       0.327954721167119   0.6612016186655697  0.3509994033013033 1.0000   
         C         C         1.0       0.43084247906208156           0.860855121294431  0.9939455528514777 1.0000   
         C         C         1.0       0.39799810929459234           0.8552991514269089 0.9710775761235455 1.0000   
         C         C         1.0       0.3913868802010147  0.820445913386096   0.9528264896560573 1.0000   
         C         C         1.0       0.4157333333009272  0.7892936348308687  0.9587901625623315 1.0000   
         C         C         1.0       0.4485890204122634  0.7949964737186481  0.9837121025116395 1.0000   
         C         C         1.0       0.4569406854436338  0.8314451543090892  0.0002728719186988471        1.0000   
         H         H         1.0       0.3777260818207574  0.8785192403590838  0.961378172936369  1.0000   
         H         H         1.0       0.3662433977792748  0.8170633568656637  0.9327886340785112 1.0000   
         H         H         1.0       0.4668020836023785  0.7690991668715179  0.9902875466959831 1.0000   
         H         H         1.0       0.4805735149535214  0.8325687526212304  0.02060240756211784          1.0000   
         C         C         1.0       0.4629303131375967  0.7259327087031883  0.9419180655748536 1.0000   
         C         C         1.0       0.43040032338107465           0.7138904626377676 0.94239666804739   1.0000   
         C         C         1.0       0.4210744995190393  0.6738921319344993  0.936597375881898  1.0000   
         C         C         1.0       0.44202139053236544           0.6464431038584972 0.9287099765636168 1.0000   
         C         C         1.0       0.4735090199690812  0.6584460514805731  0.9283093198915244 1.0000   
         C         C         1.0       0.4832852621807573  0.6984653336163221  0.9331610455907985 1.0000   
         C         C         1.0       0.4025369571244616  0.7451610378302083  0.9456010484015365 1.0000   
         C         C         1.0       0.3745555898792145  0.7457254491501613  0.910209454560455  1.0000   
         C         C         1.0       0.341975649951967   0.7221581375653146  0.8987390849688767 1.0000   
         C         C         1.0       0.3200266946880225  0.7232629289856383  0.8677686073527022 1.0000   
         C         C         1.0       0.33091611105522434           0.7427137031725399 0.8475808889164151 1.0000   
         C         C         1.0       0.36417953221411264           0.7633531595130101 0.8581293088006132 1.0000   
         C         C         1.0       0.38437133012860064           0.7670799668481824 0.8898548832847345 1.0000   
         C         C         1.0       0.41321127244188727           0.7138452249314868 0.9978852520620398 1.0000   
         C         C         1.0       0.4097154490757202  0.7137611185827475  0.02523320184108191          1.0000   
         C         C         1.0       0.38343409980643683           0.7347729151699604 0.030349490109128352         1.0000   
         C         C         1.0       0.3536298390723801  0.744421091741103   0.0039050124314570223        1.0000   
         C         C         1.0       0.35765636159866177           0.7449443125098524 0.9756414192017953 1.0000   
         C         C         1.0       0.38815756929687706           0.7311027764925423 0.9722846254258676 1.0000   
         C         C         1.0       0.39172090525720726           0.7460071073978001 0.06511267328677617          1.0000   
         C         C         1.0       0.373827756138958   0.6265501296989626  0.09155445216395175          1.0000   
         C         C         1.0       0.4077043089998955  0.6396528349088619  0.0971506397312556 1.0000   
         C         C         1.0       0.41181761179916504           0.6780595000137002 0.08970194609180693          1.0000   
         C         C         1.0       0.3837550098880492  0.7017977841371762  0.07482043897933921          1.0000   
         C         C         1.0       0.3496808401693427  0.6882491951268369  0.07193937070551781          1.0000   
         C         C         1.0       0.34487781018710956           0.6505551191843517 0.07976018962306397          1.0000   
         C         C         1.0       0.36691813268893    0.780501970575374   0.07247044324521035          1.0000   
         C         C         1.0       0.36144362068084074           0.8171165326533387 0.057454749193665444         1.0000   
         C         C         1.0       0.3511050828169336  0.8515110783209989  0.06891048686919654          1.0000   
         C         C         1.0       0.3466668601469966  0.8508494744976837  0.09569953144270182          1.0000   
         C         C         1.0       0.3526240925595402  0.81589011524507    0.11229390948024398          1.0000   
         C         C         1.0       0.36201969219085267           0.7812487714746286 0.09989251793656884          1.0000   
         C         C         1.0       0.4555073796864165  0.7624084855449108  0.11171289528248662          1.0000   
         C         C         1.0       0.48768722716098295           0.7828911711435204 0.12552172862030497          1.0000   
         C         C         1.0       0.4973208640190054  0.8099622645445808  0.10867275286184541          1.0000   
         C         C         1.0       0.475627751887932   0.8156638118210492  0.07884003373595272          1.0000   
         C         C         1.0       0.4437175490238712  0.7956932738591116  0.06686787135380134          1.0000   
         C         C         1.0       0.43077506887213324           0.7675987008347677 0.0825124564134263 1.0000   
         H         H         1.0       0.46897209670425816           0.7587550190608899 0.9426662934580574 1.0000   
         H         H         1.0       0.3963230805544083  0.6623787579370317  0.9382473983486608 1.0000   
         H         H         1.0       0.4319349674290456  0.6160229771161774  0.9227047256715049 1.0000   
         H         H         1.0       0.5069496049403286  0.7081779637829957  0.9293859997814865 1.0000   
         H         H         1.0       0.33299550734730204           0.7041000795594687 0.9133795221756502 1.0000   
         H         H         1.0       0.294271191453836   0.7045111190350642  0.8600192069235184 1.0000   
         H         H         1.0       0.3741794693937375  0.7815462226313103  0.8444646857868313 1.0000   
         H         H         1.0       0.4098201561164704  0.7849722884184179  0.899765928294372  1.0000   
         H         H         1.0       0.4371865631120912  0.7048520999998384  0.9961479711273116 1.0000   
         H         H         1.0       0.4299903469110666  0.7020610706788383  0.0450551579413474 1.0000   
         H         H         1.0       0.33179975153335517           0.7557506311859438 0.00926677532237985          1.0000   
         H         H         1.0       0.33591214160683824           0.7573998082016049 0.9555368799995735 1.0000   
         H         H         1.0       0.4330057082313846  0.623513923423346   0.10700288061735153          1.0000   
         H         H         1.0       0.4395690758814379  0.6846425194025748  0.09250681851349629          1.0000   
         H         H         1.0       0.3281736528156192  0.7080891344218767  0.06475039687306028          1.0000   
         H         H         1.0       0.317955786412183   0.6423057996018864  0.07761467854610626          1.0000   
         H         H         1.0       0.3643781846267123  0.8184398360099258  0.03568793364929723          1.0000   
         H         H         1.0       0.34724013747828997           0.8764950376455451 0.05654676909761425          1.0000   
         H         H         1.0       0.3509004752901881  0.8121136505151735  0.1342011783372632 1.0000   
         H         H         1.0       0.36910819899828917           0.7561768482589865 0.11475437245748532          1.0000   
         H         H         1.0       0.4515122084525147  0.7398975072183753  0.12603394421598657          1.0000   
         H         H         1.0       0.5056150206717602  0.7806601956379464  0.15118220142286143          1.0000   
         H         H         1.0       0.4843298647171257  0.8401470450554551  0.0674768930154026 1.0000   
         H         H         1.0       0.42558354847605223           0.8070741873435433 0.04450185333183554          1.0000   
         C         C         1.0       0.3928617878386431  0.8401906010295994  0.7652101522177457 1.0000   
         C         C         1.0       0.423508024889472   0.8575151702172191  0.7873152210065169 1.0000   
         C         C         1.0       0.4499315064546934  0.8344271739602332  0.8071030093860824 1.0000   
         C         C         1.0       0.4453317366668568  0.7944782609146765  0.8077627256290757 1.0000   
         C         C         1.0       0.41479917930182203           0.7760088192894175 0.7868963620068131 1.0000   
         C         C         1.0       0.3877185299442647  0.7985072914972263  0.7652461721151717 1.0000   
         H         H         1.0       0.424534987233117   0.8889508524660277  0.7879443142913243 1.0000   
         H         H         1.0       0.47743757694635064           0.8475184647042434 0.8210241893983112 1.0000   
         H         H         1.0       0.41277931397471124           0.743668932475298  0.7873315086962824 1.0000   
         H         H         1.0       0.3643302300938297  0.7822801488550922  0.7498833032420605 1.0000   
         C         C         1.0       0.44320171427422916           0.7086578498434234 0.8415847225441302 1.0000   
         C         C         1.0       0.47230825430017354           0.7212041338938919 0.8355792453843938 1.0000   
         C         C         1.0       0.4996219088180205  0.6925600790712788  0.8404157825022458 1.0000   
         C         C         1.0       0.49800084942281936           0.6577183823891906 0.8528592248288296 1.0000   
         C         C         1.0       0.47112070372832787           0.6479241488483866 0.8614145504880608 1.0000   
         C         C         1.0       0.4413056481209332  0.6718749231936001  0.8529857508349    1.0000   
         C         C         1.0       0.479388372256781   0.7680302031910681  0.8302349445676876 1.0000   
         C         C         1.0       0.4988595131978001  0.7846547388464862  0.8655098292260377 1.0000   
         C         C         1.0       0.5358116602539608  0.7747791810849176  0.882518942376643  1.0000   
         C         C         1.0       0.5566704055298346  0.7969046946406768  0.9081248631029422 1.0000   
         C         C         1.0       0.5429928137956412  0.8292306571596225  0.9179985068649297 1.0000   
         C         C         1.0       0.50728548231151    0.8370630942201396  0.902439001203479  1.0000   
         C         C         1.0       0.48521329004889285           0.8149519962231629 0.8785440468019389 1.0000   
         C         C         1.0       0.4919595053639515  0.7525630253447567  0.7824715688189483 1.0000   
         C         C         1.0       0.5116156850274263  0.7522868678296224  0.7643476494967693 1.0000   
         C         C         1.0       0.5430907746680286  0.7784735628275808  0.7735640456380694 1.0000   
         C         C         1.0       0.5530974098344528  0.8015960308539004  0.8008624479863119 1.0000   
         C         C         1.0       0.5343065083726822  0.7983942048642005  0.8189096442238897 1.0000   
         C         C         1.0       0.5042696759658635  0.7717199584301512  0.8112925168083217 1.0000   
         C         C         1.0       0.563890852250115   0.7816819217170733  0.752775485503108  1.0000   
         C         C         1.0       0.6309753634875834  0.6777585469104874  0.7937256241633924 1.0000   
         C         C         1.0       0.6037892059921405  0.6744949302654375  0.7636647502552539 1.0000   
         C         C         1.0       0.5835681832026207  0.7080209243494119  0.7514836253502735 1.0000   
         C         C         1.0       0.5911433332427859  0.7452779717383485  0.7674938792652521 1.0000   
         C         C         1.0       0.6207552434544599  0.7479598735892927  0.7962011093145616 1.0000   
         C         C         1.0       0.6393420841182847  0.713912818037516   0.808196889661819  1.0000   
         C         C         1.0       0.5836346350597403  0.8228506014578868  0.7537027246689039 1.0000   
         C         C         1.0       0.5667480092661892  0.8571574267719092  0.7551814308104627 1.0000   
         C         C         1.0       0.5841596069792412  0.8939727404048089  0.7604278832850815 1.0000   
         C         C         1.0       0.6196182610831403  0.8947587936837772  0.7638117128811484 1.0000   
         C         C         1.0       0.6378208427738237  0.8595901996198191  0.7623623995524416 1.0000   
         C         C         1.0       0.6181614150133872  0.8229386136936662  0.7555031130366474 1.0000   
         C         C         1.0       0.5560204315821791  0.774569025672691   0.6950193103022663 1.0000   
         C         C         1.0       0.5374747816763221  0.7763632980765284  0.6634311239646701 1.0000   
         C         C         1.0       0.5024108683193338  0.7887786673901057  0.6515990311900168 1.0000   
         C         C         1.0       0.4854416606214732  0.7958280410672903  0.6710626739985589 1.0000   
         C         C         1.0       0.504487547387772   0.793359050127328   0.7012675763934649 1.0000   
         C         C         1.0       0.5390917661376521  0.7818312064685351  0.715479233637975  1.0000   
         H         H         1.0       0.4262701680725183  0.7303918451405301  0.843341142995469  1.0000   
         H         H         1.0       0.5239263433511987  0.7008742852379695  0.8375748023572726 1.0000   
         H         H         1.0       0.5202860925897702  0.6389970498196005  0.8557757612615772 1.0000   
         H         H         1.0       0.4167593962789104  0.6659170548726429  0.857123074411817  1.0000   
         H         H         1.0       0.5479411626909307  0.751576245563482   0.874733719229422  1.0000   
         H         H         1.0       0.5850307315947837  0.7897996844393478  0.918639249448469  1.0000   
         H         H         1.0       0.4920908538418892  0.8623211293896659  0.906264246261793  1.0000   
         H         H         1.0       0.4578448652259883  0.8259257747620796  0.8679960754458074 1.0000   
         H         H         1.0       0.47308672216239456           0.7275591649041238 0.7773700563994602 1.0000   
         H         H         1.0       0.5036410920802441  0.7356931285222302  0.7419444019532805 1.0000   
         H         H         1.0       0.5762092827371098  0.8203536388266119  0.8086927949871179 1.0000   
         H         H         1.0       0.5464896648728929  0.8120550451949482  0.8412644188309958 1.0000   
         H         H         1.0       0.5989031282429058  0.6442400820641908  0.7523462428622408 1.0000   
         H         H         1.0       0.5606428317008723  0.7049187380452107  0.729944614655074  1.0000   
         H         H         1.0       0.6229085519107989  0.7752210730599349  0.8084101559146106 1.0000   
         H         H         1.0       0.6638709182735302  0.7127438997715796  0.8276200066332391 1.0000   
         H         H         1.0       0.540847127504494   0.8604716848578553  0.7560359965295621 1.0000   
         H         H         1.0       0.571014866945714   0.9196632767409668  0.7636444464034446 1.0000   
         H         H         1.0       0.6664630759977005  0.8595092813337353  0.7650296645916987 1.0000   
         H         H         1.0       0.632719113054397   0.797957029613001   0.7513736810747599 1.0000   
         H         H         1.0       0.5862182403925963  0.7658026339496665  0.7052219948600082 1.0000   
         H         H         1.0       0.5505611935291969  0.7723848615379217  0.6484680164312516 1.0000   
         H         H         1.0       0.45848065028093204           0.8036054198432465 0.6628136700918666 1.0000   
         H         H         1.0       0.4879675919676906  0.8017977545825807  0.7146855026046075 1.0000   
         C         C         1.0       0.6093550559390986  0.13488563006975143           0.08933258319306381          1.0000   
         C         C         1.0       0.6276247804416046  0.10440342208652376           0.10753289361264873          1.0000   
         C         C         1.0       0.6170532833875997  0.06548494355861778           0.09793912179495479          1.0000   
         C         C         1.0       0.590718867440839   0.05725298459353367           0.06958462152380629          1.0000   
         C         C         1.0       0.570890221632712   0.08788413139232132           0.05383872842536075          1.0000   
         C         C         1.0       0.5812009466892745  0.12677626745469972           0.061098407593568105         1.0000   
         H         H         1.0       0.6516214740257826  0.10934630010971946           0.12846832303945965          1.0000   
         H         H         1.0       0.6335790666854992  0.0409607825475653  0.10991995113283615          1.0000   
         H         H         1.0       0.5466879454648378  0.08041015933830575           0.03155071341162685          1.0000   
         H         H         1.0       0.568217553521583   0.15127661974900186           0.04489585151772757          1.0000   
         C         C         1.0       0.5192481356562554  0.0055791941365646025        0.04907119232013568          1.0000   
         C         C         1.0       0.5452164004249533  0.9978657831645207  0.037730658442488574         1.0000   
         C         C         1.0       0.5368547871399066  0.9686404975175343  0.014147772429677019         1.0000   
         C         C         1.0       0.5031093642240311  0.9527748494871677  0.0001820770474918465        1.0000   
         C         C         1.0       0.47690473416421897           0.9610904392995028 0.010800452037621255         1.0000   
         C         C         1.0       0.4857842496643588  0.9873165988688464  0.035982587441716785         1.0000   
         C         C         1.0       0.5855527226254079  0.013398997590336581         0.05373456516511599          1.0000   
         C         C         1.0       0.5994523442410702  0.9778249830710964  0.07766594737046595          1.0000   
         C         C         1.0       0.6157361357017835  0.9443846022969293  0.07055428510297301          1.0000   
         C         C         1.0       0.6255094615598114  0.9118196180443487  0.08943967948843001          1.0000   
         C         C         1.0       0.6182427423128621  0.9117083312817361  0.1159001621929574 1.0000   
         C         C         1.0       0.6020969410314977  0.9432376679670587  0.12271385887720232          1.0000   
         C         C         1.0       0.5917279212862013  0.97578764540997    0.10433214126384649          1.0000   
         C         C         1.0       0.5893256980210761  0.03641511533177977           0.0033727918055814765        1.0000   
         C         C         1.0       0.6058410047768542  0.046035573997557755         0.9851003294245774 1.0000   
         C         C         1.0       0.6425815452097494  0.041166677169098165         0.9924164146215684 1.0000   
         C         C         1.0       0.662964446878435   0.030692016467564143         0.022688613290510196         1.0000   
         C         C         1.0       0.6446279262328525  0.016631030790689616         0.04098897017846004          1.0000   
         C         C         1.0       0.6079364682792752  0.020731707707082547         0.03194462646984242          1.0000   
         C         C         1.0       0.6547469427040313  0.039968268450840894         0.9636731839145437 1.0000   
         C         C         1.0       0.6197595090219002  0.9144463203614753  0.9383535753738955 1.0000   
         C         C         1.0       0.601054085605366   0.9444501633379658  0.9192302760929786 1.0000   
         C         C         1.0       0.6122622873763754  0.9835650028542368  0.9275689476900479 1.0000   
         C         C         1.0       0.644631732865281   0.9940123662202719  0.9527766810892193 1.0000   
         C         C         1.0       0.6630863180394745  0.9613767192507804  0.9697786400702079 1.0000   
         C         C         1.0       0.6531550743764868  0.9223739752857073  0.9624277475105334 1.0000   
         C         C         1.0       0.212093796703305   0.8941277800415789  0.0793821210545691 1.0000   
         C         C         1.0       0.2343815693046363  0.9260029979325098  0.07873342035929931          1.0000   
         C         C         1.0       0.2706148448344981  0.9294078146578961  0.09722236942922824          1.0000   
         C         C         1.0       0.2866030980801682  0.8991913082470375  0.11634644401132643          1.0000   
         C         C         1.0       0.26618237113659626           0.8674118278231084 0.117132588871947  1.0000   
         C         C         1.0       0.22854352698821437           0.8645978834937962 0.10035924323326562          1.0000   
         C         C         1.0       0.6452563099781321  0.06971230977174447           0.9120813113760604 1.0000   
         C         C         1.0       0.6403311175437215  0.10000437912310312           0.8925718765938766 1.0000   
         C         C         1.0       0.6303549455903208  0.13700170113723953           0.9006890756931207 1.0000   
         C         C         1.0       0.6260415345601152  0.1426475668884688  0.9275639539705537 1.0000   
         C         C         1.0       0.6296727861894434  0.11055250381224191           0.9458423610649137 1.0000   
         C         C         1.0       0.6383683151689513  0.07208960302864575           0.9383543824961071 1.0000   
         H         H         1.0       0.5246567054237803  0.023798973760304154         0.06985605001912454          1.0000   
         H         H         1.0       0.5572641067027676  0.9613270196053687  0.0046655295222817195        1.0000   
         H         H         1.0       0.4970665865108366  0.9329333335459629  0.9815868259873494 1.0000   
         H         H         1.0       0.46513245128147224           0.9963819481257336 0.04381016959439621          1.0000   
         H         H         1.0       0.6174164223357939  0.9418786458744159  0.04648906569014555          1.0000   
         H         H         1.0       0.6401719049127893  0.8891257858031227  0.08272595104824165          1.0000   
         H         H         1.0       0.6676812901040761  0.10728366847478288           0.6524068703369621 1.0000   
         H         H         1.0       0.5790766858904053  0.0010266391731430513        0.110048487102681  1.0000   
         H         H         1.0       0.559685316144798   0.04246843854446802           0.9943280525689965 1.0000   
         H         H         1.0       0.5910161457070873  0.05462430052139733           0.9618708799543594 1.0000   
         H         H         1.0       0.690627457732485   0.026344548163228954         0.03182416827734191          1.0000   
         H         H         1.0       0.6588349380713643  0.004390028182572836         0.06474491414015282          1.0000   
         H         H         1.0       0.5755050135270445  0.9362490082620458  0.9021305791819337 1.0000   
         H         H         1.0       0.5952064517847215  0.00486483080778366           0.91358460685494   1.0000   
         H         H         1.0       0.6841268655472149  0.9681986845078876  0.9907944816033297 1.0000   
         H         H         1.0       0.6694430297466968  0.9002640654674531  0.9769565800534727 1.0000   
         H         H         1.0       0.22389673355258877           0.9525418526863099 0.06437323793936112          1.0000   
         H         H         1.0       0.2869059330423373  0.9552146442640997  0.09528646468305002          1.0000   
         H         H         1.0       0.277745487637888   0.8441598384944163  0.13308443745073228          1.0000   
         H         H         1.0       0.7132806462259011  0.002402147288189438         0.9518192334038693 1.0000   
         H         H         1.0       0.6532470459591325  0.04297372687196188           0.905472027723406  1.0000   
         H         H         1.0       0.6478711179046345  0.09528537498945777           0.873047161919452  1.0000   
         H         H         1.0       0.6235377901253549  0.17221857781083072           0.9357444328297077 1.0000   
         H         H         1.0       0.6307390975557435  0.11526612889760801           0.9690738171494688 1.0000   
         C         C         1.0       0.37461111404299896           0.12971360679348942          0.8271968275351681 1.0000   
         C         C         1.0       0.34933923747442    0.11890049672105785           0.8387621849671102 1.0000   
         C         C         1.0       0.32656211633988563           0.08854585507359491          0.8242242068096179 1.0000   
         C         C         1.0       0.32687329106484697           0.06946449370901253          0.7979999581300284 1.0000   
         C         C         1.0       0.3538368456709394  0.07912945914408409           0.7882300549610369 1.0000   
         C         C         1.0       0.3768797118285654  0.11061611693934137           0.8015076113833753 1.0000   
         H         H         1.0       0.34498249721726354           0.13687676960349981          0.8560775857052606 1.0000   
         H         H         1.0       0.30503133533990007           0.08468866977049494          0.8306897206477694 1.0000   
         H         H         1.0       0.35581446151570156           0.06412092172945028          0.7682003102579515 1.0000   
         H         H         1.0       0.395908281606524   0.12229720495136309           0.7918966671945711 1.0000   
         C         C         1.0       0.2912163831501527  0.9809113582646499  0.7414479987093003 1.0000   
         C         C         1.0       0.31278249581993106           0.9998283161333165 0.7692020335408539 1.0000   
         C         C         1.0       0.34453734281286996           0.9825176700868286 0.7887364225845064 1.0000   
         C         C         1.0       0.35364818570412754           0.9448595890493423 0.782163002246916  1.0000   
         C         C         1.0       0.3324126614184264  0.9251299228879277  0.7546520305408637 1.0000   
         C         C         1.0       0.30147579689221854           0.9445510686661929 0.7332871324846679 1.0000   
         C         C         1.0       0.29592236474818523           0.037360467691522015         0.7804614358857951 1.0000   
         C         C         1.0       0.26831445776369794           0.0674206583425554 0.7570993591015924 1.0000   
         C         C         1.0       0.27334353298619635           0.0798532443131037 0.7311932166386379 1.0000   
         C         C         1.0       0.2533930281406319  0.11039537854686321           0.7136033835227344 1.0000   
         C         C         1.0       0.22567696251128666           0.1264873348152764 0.7182605158132856 1.0000   
         C         C         1.0       0.21837123223589316           0.11372663694921692          0.7434958873366218 1.0000   
         C         C         1.0       0.2388407409151785  0.08526013910806651           0.7628483025345562 1.0000   
         C         C         1.0       0.29637435914826477           0.9993691816716079 0.8291991196604471 1.0000   
         C         C         1.0       0.28159416516852154           0.9740231986395697 0.8433671721964692 1.0000   
         C         C         1.0       0.2518261625069263  0.9523572480795234  0.8248238602231467 1.0000   
         C         C         1.0       0.23231187091514058           0.9617179272346327 0.7947174106421396 1.0000   
         C         C         1.0       0.24459103981786848           0.9933685500406086 0.7829773046779848 1.0000   
         C         C         1.0       0.2779989737687151  0.010464583811822026         0.7992075731831972 1.0000   
         C         C         1.0       0.24214006378135433           0.9107176954747811 0.8362168811949027 1.0000   
         C         C         1.0       0.2923651938240023  0.8202417604417125  0.8005983981406544 1.0000   
         C         C         1.0       0.3128528256991308  0.8465240229235732  0.8245880189154826 1.0000   
         C         C         1.0       0.2960961483518369  0.8751759273504433  0.8346322878780967 1.0000   
         C         C         1.0       0.25925996546275887           0.8800629681334196 0.8202330962502747 1.0000   
         C         C         1.0       0.23950451656695085           0.8581488762638718 0.7934865280552672 1.0000   
         C         C         1.0       0.25696342532342215           0.828391480436957  0.7840905007032258 1.0000   
         C         C         1.0       0.1984506925741332  0.903341671026705   0.8276929438491181 1.0000   
         C         C         1.0       0.17294851988695625           0.9335188763126585 0.8234761431580202 1.0000   
         C         C         1.0       0.6914846736435853  0.0043069720362398645        0.804430528606198  1.0000   
         C         C         1.0       0.666519514279125   0.9912621511893194  0.8150643710361016 1.0000   
         C         C         1.0       0.6712790591912642  0.0011292713916708497        0.8452988896264466 1.0000   
         C         C         1.0       0.18460834126711997           0.8643963845523855 0.8256153491530883 1.0000   
         C         C         1.0       0.2638791102960829  0.8703661163731818  0.8871952457621146 1.0000   
         C         C         1.0       0.2700294297069058  0.8674583072306133  0.9178442175910286 1.0000   
         C         C         1.0       0.2676050694474606  0.900258484561094   0.9340662850753768 1.0000   
         C         C         1.0       0.2589297379691942  0.9370804325976946  0.9205773453700624 1.0000   
         C         C         1.0       0.2523513135988922  0.9384384057801751  0.8902015841242279 1.0000   
         C         C         1.0       0.2545808102491536  0.9070104866987112  0.8724180202426166 1.0000   
         H         H         1.0       0.26802669418112474           0.995745915834514  0.7251768173327146 1.0000   
         H         H         1.0       0.3619427022983179  0.996584186068257   0.8102964180973447 1.0000   
         H         H         1.0       0.37480882144354827           0.9285222766502005 0.8013959872508726 1.0000   
         H         H         1.0       0.28698307168047166           0.9311075939879706 0.7110036037199899 1.0000   
         H         H         1.0       0.29546819943952574           0.06632452808901457          0.7266083332159334 1.0000   
         H         H         1.0       0.2560522819071696  0.11758751048295646           0.6921619830359547 1.0000   
         H         H         1.0       0.20075866499143696           0.12997337356970062          0.751490538617953  1.0000   
         H         H         1.0       0.2333423187459442  0.07995780269542929           0.7836439406555846 1.0000   
         H         H         1.0       0.32557112752609646           0.009518707323047382         0.8432856964098958 1.0000   
         H         H         1.0       0.3005868487648877  0.9680975678285929  0.866269165827451  1.0000   
         H         H         1.0       0.2078013235800467  0.9438432276969538  0.7792098579966393 1.0000   
         H         H         1.0       0.23011976777896484           0.0010498726847134598        0.7595413308394463 1.0000   
         H         H         1.0       0.34297885833850106           0.8480507440446117 0.8353650245852897 1.0000   
         H         H         1.0       0.3154074467703418  0.8953475994126879  0.8538388271612215 1.0000   
         H         H         1.0       0.21048996293891584           0.8613227795545991 0.7803802207862652 1.0000   
         H         H         1.0       0.2403749368160892  0.8091912346599914  0.7649420628882051 1.0000   
         H         H         1.0       0.18063917702368762           0.9644904582645089 0.8218927340552966 1.0000   
         H         H         1.0       0.6872288967866961  0.9956564309011997  0.7814982911214156 1.0000   
         H         H         1.0       0.6518210995376948  0.9899701867995245  0.854247358143159  1.0000   
         H         H         1.0       0.20087222663687382           0.838608022418174  0.8266739767602317 1.0000   
         H         H         1.0       0.2616416243620908  0.8424898505408644  0.8741657865395773 1.0000   
         H         H         1.0       0.27480167207437983           0.8394144383543992 0.925749104982614  1.0000   
         H         H         1.0       0.2572688989766142  0.9614878264295204  0.9355315560265322 1.0000   
         H         H         1.0       0.24829378139762415           0.9685565689366334 0.8810737981608584 1.0000   
         C         C         1.0       0.38700750948275914           0.5182498365227135 0.12874710496470443          1.0000   
         C         C         1.0       0.4115143441158768  0.4916907976581398  0.12539738639603248          1.0000   
         C         C         1.0       0.40893517645205296           0.4493458640476801 0.12469325641291107          1.0000   
         C         C         1.0       0.37868033173317683           0.4318429968123174 0.1259785822331272 1.0000   
         C         C         1.0       0.3546287861475202  0.45632673170997506           0.13247988956858792          1.0000   
         C         C         1.0       0.3590442564088911  0.4985460368191799  0.13373377736632497          1.0000   
         H         H         1.0       0.4357424774065498  0.5043979801901622  0.12471464801509291          1.0000   
         H         H         1.0       0.4270463135982878  0.4334080887346758  0.11939600291006158          1.0000   
         H         H         1.0       0.3336983027439673  0.444224876805632   0.13775457302583738          1.0000   
         H         H         1.0       0.3397955388354971  0.5163826246489026  0.13887205102148426          1.0000   
         C         C         1.0       0.32448048603695123           0.3273142340825135 0.10851852494489522          1.0000   
         C         C         1.0       0.3271184726337088  0.36783393396350433           0.10524649168770739          1.0000   
         C         C         1.0       0.29587846339607354           0.3882940706333384 0.08935119210126286          1.0000   
         C         C         1.0       0.26380395299080667           0.3670004428568172 0.07662821965754385          1.0000   
         C         C         1.0       0.26171177549548286           0.32630085007968573          0.08077564291826822          1.0000   
         C         C         1.0       0.292262967797764   0.30708821379255546           0.09994650610902744          1.0000   
         C         C         1.0       0.3652720222336462  0.38743379952432505           0.11068217309063111          1.0000   
         C         C         1.0       0.39693591594907524           0.36193453918966473          0.13469196914155668          1.0000   
         C         C         1.0       0.39573959799490394           0.3553060383696266 0.16331328699377723          1.0000   
         C         C         1.0       0.42287402581861117           0.33415628010991855          0.1856675894921398 1.0000   
         C         C         1.0       0.4539096498246909  0.3239521249685087  0.181658600344057  1.0000   
         C         C         1.0       0.45380108362817645           0.3291617974554    0.15178451568235696          1.0000   
         C         C         1.0       0.42704213420773873           0.34976362815559126          0.12985091920623204          1.0000   
         C         C         1.0       0.3536079564941019  0.42143175708198055           0.05788923793265144          1.0000   
         C         C         1.0       0.34375585916596607           0.4181891465928214 0.026656534651798625         1.0000   
         C         C         1.0       0.34527524723984565           0.38213689811872315          0.011778979863109384         1.0000   
         C         C         1.0       0.35258632468417944           0.347607609678305  0.0299821697092868 1.0000   
         C         C         1.0       0.3597928429800732  0.34997225423581574           0.06015696303455642          1.0000   
         C         C         1.0       0.36107112257693486           0.38635882054141285          0.07517803679308988          1.0000   
         C         C         1.0       0.3387878200357716  0.383622396427662   0.9755504033464915 1.0000   
         C         C         1.0       0.22027457375524906           0.3906464550956329 0.9313862050225504 1.0000   
         C         C         1.0       0.241045674895088   0.42311824292597616           0.9357981512709191 1.0000   
         C         C         1.0       0.2776065348043864  0.4247753908400977  0.9513013710996432 1.0000   
         C         C         1.0       0.2962982459205414  0.38933109312057773           0.9625238094226631 1.0000   
         C         C         1.0       0.2752385750152877  0.3553588229243278  0.960254542499098  1.0000   
         C         C         1.0       0.2373636125071224  0.3556592475120877  0.9455449459309839 1.0000   
         C         C         1.0       0.35176180211350533           0.34935972452405134          0.9604892476506836 1.0000   
         C         C         1.0       0.38204763151941756           0.3278725355620125 0.977312074214457  1.0000   
         C         C         1.0       0.3930345012472588  0.29797029279170245           0.9637593822018281 1.0000   
         C         C         1.0       0.3754537064993513  0.2878601047998891  0.9337959368827816 1.0000   
         C         C         1.0       0.3467915287523013  0.3110642319499183  0.9152883753691166 1.0000   
         C         C         1.0       0.3368061893105381  0.34279448217883435           0.9280600864087618 1.0000   
         C         C         1.0       0.3546173837676127  0.4419699534968862  0.9435198350951741 1.0000   
         C         C         1.0       0.3775237382967504  0.47468837411981    0.9441240482506876 1.0000   
         C         C         1.0       0.40872741105080024           0.4838297921190534 0.9694072583111608 1.0000   
         C         C         1.0       0.4190193436860887  0.4593209726139362  0.9936339075259223 1.0000   
         C         C         1.0       0.397408735128487   0.42719096948120466           0.9932712742644965 1.0000   
         C         C         1.0       0.3612407410343892  0.41983626435282156           0.9701900792824774 1.0000   
         H         H         1.0       0.3477241341514483  0.3095126263682375  0.1173912003574824 1.0000   
         H         H         1.0       0.29795950757052647           0.4169630137045068 0.08143806832934897          1.0000   
         H         H         1.0       0.2423393396919513  0.38118796653174464           0.057171950912263236         1.0000   
         H         H         1.0       0.2925647396484197  0.2754714419955298  0.10586466332545341          1.0000   
         H         H         1.0       0.3736645251871749  0.3633337094833533  0.1681063174805637 1.0000   
         H         H         1.0       0.41946713795731416           0.3305985028841566 0.20757104493335166          1.0000   
         H         H         1.0       0.47404168544604236           0.3132636756230769 0.1463083945683068 1.0000   
         H         H         1.0       0.4315181710977965  0.3540244246923739  0.1091936470245991 1.0000   
         H         H         1.0       0.35413807148656634           0.45222332894122874          0.06822289418210947          1.0000   
         H         H         1.0       0.34152377879545903           0.443783436167368  0.012945963731078702         1.0000   
         H         H         1.0       0.3501619820748846  0.31780051219897626           0.017514424413867635         1.0000   
         H         H         1.0       0.3649975375697165  0.32246778063877457           0.07166144729289803          1.0000   
         H         H         1.0       0.22825706044520286           0.44972417985895846          0.9245555542913796 1.0000   
         H         H         1.0       0.2911428045879151  0.4507333195744797  0.9477741852634053 1.0000   
         H         H         1.0       0.28997231598004664           0.32831759537860494          0.9708320882192055 1.0000   
         H         H         1.0       0.2200398988949399  0.32929650347858813           0.9468106332671801 1.0000   
         H         H         1.0       0.39728746507398166           0.3315344340321627 0.002620253210799506         1.0000   
         H         H         1.0       0.4128277605149397  0.2804405748337922  0.978098405055837  1.0000   
         H         H         1.0       0.33408188310938675           0.30695826210524463          0.890281385725639  1.0000   
         H         H         1.0       0.3203007901313843  0.36655898639689105           0.9146558832019905 1.0000   
         H         H         1.0       0.3297132003198402  0.4373422950394969  0.9234179068375622 1.0000   
         H         H         1.0       0.366668217662315   0.49672763647027424           0.9253131950665356 1.0000   
         H         H         1.0       0.4443081019397131  0.46311709051248245           0.011534941011930089         1.0000   
         H         H         1.0       0.4059625654823683  0.4160370600681438  0.016511969933044712         1.0000   
         C         C         1.0       0.6101080531336546  0.5882812760622579  0.8146966542004017 1.0000   
         C         C         1.0       0.584036470854466   0.5863258078394372  0.8268875301832974 1.0000   
         C         C         1.0       0.5554862905339017  0.5585997897839396  0.8143704040784379 1.0000   
         C         C         1.0       0.5546283446094935  0.5308808091060422  0.7915762203884691 1.0000   
         C         C         1.0       0.580649943601489   0.5326250974278955  0.7789262635805817 1.0000   
         C         C         1.0       0.608578484864357   0.5603734533804503  0.7915927744219606 1.0000   
         H         H         1.0       0.5867442130214509  0.6069860742900912  0.8461315639055978 1.0000   
         H         H         1.0       0.5347425249324541  0.5600427627720481  0.823934764810517  1.0000   
         H         H         1.0       0.5775357247068073  0.5184053991360239  0.7579539091467551 1.0000   
         H         H         1.0       0.6277762487774834  0.5596283061804042  0.7815956257594793 1.0000   
         C         C         1.0       0.4926595570024067  0.4537217540123341  0.7259213441193682 1.0000   
         C         C         1.0       0.5214224328851134  0.4654659437640665  0.7533847291888595 1.0000   
         C         C         1.0       0.550694480931799   0.44245158234338927           0.7640960771965097 1.0000   
         C         C         1.0       0.5545577466044264  0.4096784118417338  0.7477265777198093 1.0000   
         C         C         1.0       0.5277223860818744  0.3996794875595174  0.7190413815727482 1.0000   
         C         C         1.0       0.4949722018322616  0.42134290445573863           0.7083960696938507 1.0000   
         C         C         1.0       0.5168127462549983  0.5059384074004877  0.7725762926457537 1.0000   
         C         C         1.0       0.49403059159958423           0.5402603124163365 0.7518434056444717 1.0000   
         C         C         1.0       0.4749201486181681  0.568862582823464   0.7611197217573047 1.0000   
         C         C         1.0       0.45963670388695904           0.6019751911299309 0.7438579687969143 1.0000   
         C         C         1.0       0.46216282060002134           0.6075396802209645 0.7159742529240858 1.0000   
         C         C         1.0       0.4818843335169211  0.5811213940759887  0.705636677920744  1.0000   
         C         C         1.0       0.49895788754626536           0.5491950366887937 0.7244013665741362 1.0000   
         C         C         1.0       0.5189693255814557  0.47557075846195274           0.8228976520758147 1.0000   
         C         C         1.0       0.5028151322537109  0.45805230899377936           0.8404762859552294 1.0000   
         C         C         1.0       0.4650340308410061  0.4518128234971667  0.8288605493113442 1.0000   
         C         C         1.0       0.4462209230390704  0.46081913173870953           0.7982096886232863 1.0000   
         C         C         1.0       0.46220297568891194           0.4791824118672122 0.7816117613375165 1.0000   
         C         C         1.0       0.49939680248320834           0.4872267098922903 0.7939655215522643 1.0000   
         C         C         1.0       0.4453003850951917  0.4326819670932455  0.8488010770446202 1.0000   
         C         C         1.0       0.4806548344140561  0.3180003270327494  0.8245423627697867 1.0000   
         C         C         1.0       0.4954561796754417  0.33098844911475694           0.8553357070037445 1.0000   
         C         C         1.0       0.4833915861847794  0.36558402542050744           0.8649814445011549 1.0000   
         C         C         1.0       0.45490198518885    0.38732165420242376           0.8431805177300069 1.0000   
         C         C         1.0       0.43752055188344585           0.3699323509591543 0.8135552750388899 1.0000   
         C         C         1.0       0.45184184035359837           0.3379236209721758 0.8029230820683568 1.0000   
         C         C         1.0       0.40438926931577757           0.4430923402853646 0.8372734300398106 1.0000   
         C         C         1.0       0.3908302905785862  0.4803573988501215  0.8274935100420596 1.0000   
         C         C         1.0       0.3559111903460408  0.4900811826037215  0.8209105259533782 1.0000   
         C         C         1.0       0.33144820597237457           0.46301426517550853          0.8234501728513124 1.0000   
         C         C         1.0       0.3434297728224304  0.4261023603353538  0.8354603792667755 1.0000   
         C         C         1.0       0.37891140559625563           0.4165161776980593 0.8405003403877371 1.0000   
         C         C         1.0       0.4540034198303146  0.4268122345286012  0.9056855736025442 1.0000   
         C         C         1.0       0.46263158881598243           0.4403960233498194 0.9348178384624225 1.0000   
         C         C         1.0       0.46813739883161104           0.4815485429192682 0.9407962166617704 1.0000   
         C         C         1.0       0.469195206764099   0.5060577217588101  0.9178222770723933 1.0000   
         C         C         1.0       0.466451886742808   0.4902619261031069  0.8903004420217101 1.0000   
         C         C         1.0       0.45937619580727845           0.4491528867023896 0.8827390399417409 1.0000   
         H         H         1.0       0.46930116304716335           0.47065240996679225          0.7149555112133636 1.0000   
         H         H         1.0       0.5729922506996735  0.4484529310125912  0.7847746385335227 1.0000   
         H         H         1.0       0.5783910802023641  0.39392754359937965           0.7550482898059426 1.0000   
         H         H         1.0       0.47421677785101857           0.4121610129788826 0.6849755781923891 1.0000   
         H         H         1.0       0.4719390828347258  0.5647959249398289  0.7824251709975328 1.0000   
         H         H         1.0       0.44485907621821896           0.626150309019426  0.750173358378053  1.0000   
         H         H         1.0       0.4833414705740851  0.5831249279045676  0.6842455480425015 1.0000   
         H         H         1.0       0.5163807533057815  0.5307265566570402  0.7177569579772302 1.0000   
         H         H         1.0       0.548792366725529   0.48270374775515407           0.8364758198329333 1.0000   
         H         H         1.0       0.5201601504163822  0.455353056505999   0.8642283558570135 1.0000   
         H         H         1.0       0.41785380406285405           0.45173888484062297          0.7851770276759715 1.0000   
         H         H         1.0       0.44681065361603384           0.4822442040759639 0.7574929882235434 1.0000   
         H         H         1.0       0.5147034167633232  0.3128379093160843  0.8717212218384326 1.0000   
         H         H         1.0       0.4963987266008165  0.3761459392125651  0.8882814107377079 1.0000   
         H         H         1.0       0.4113979406836622  0.3838134340621262  0.7979521896739342 1.0000   
         H         H         1.0       0.4385220839332185  0.3275312719766512  0.7794196953659068 1.0000   
         H         H         1.0       0.4063006590425857  0.5041704022058232  0.8246854044086112 1.0000   
         H         H         1.0       0.3482865071710466  0.5187970756510975  0.8112887436860401 1.0000   
         H         H         1.0       0.3255777253807346  0.4051468644284497  0.8405533752356691 1.0000   
         H         H         1.0       0.38867115271254177           0.387406025042996  0.8483891699942514 1.0000   
         H         H         1.0       0.445778832379782   0.39723920639872873           0.8999426960767636 1.0000   
         H         H         1.0       0.46102183633537336           0.4195093366454073 0.9520039026750761 1.0000   
         H         H         1.0       0.47636364870678677           0.5387502262631274 0.9219821571823453 1.0000   
         H         H         1.0       0.4691479003863154  0.5130776963792979  0.8744461262105876 1.0000   
         C         C         1.0       0.20069616689820075           0.261416828177574  0.007347663865967524         1.0000   
         C         C         1.0       0.184621414155226   0.28554564631287704           0.9837678789792387 1.0000   
         C         C         1.0       0.15052556822632077           0.27532043915722115          0.9627352582855394 1.0000   
         C         C         1.0       0.1327584624448973  0.24008662063323685           0.9630329485160128 1.0000   
         C         C         1.0       0.15076654210028959           0.21644770315903436          0.9894993150231651 1.0000   
         C         C         1.0       0.18349100569754487           0.22863295573910766          0.011733202146853472         1.0000   
         H         H         1.0       0.19352287694881715           0.31546236931143473          0.9789392822144922 1.0000   
         H         H         1.0       0.5594590286769334  0.41035120625159605           0.9062672591307078 1.0000   
         H         H         1.0       0.13584875779126301           0.19032737261866486          0.9904258854840577 1.0000   
         H         H         1.0       0.19834880474150193           0.21305439812011567          0.03191291847338662          1.0000   
         C         C         1.0       0.13572859644116073           0.1750893691058913 0.9224335781514094 1.0000   
         C         C         1.0       0.6659135749728806  0.37569176611578375           0.9249693140585256 1.0000   
         C         C         1.0       0.684726427783028   0.3439077428995994  0.9431526916772031 1.0000   
         C         C         1.0       0.7211051739805134  0.3369645950223432  0.9495454854675364 1.0000   
         C         C         1.0       0.1150640538394493  0.10974438186929313           0.9017614428063934 1.0000   
         C         C         1.0       0.14198785759317076           0.1406248255874626 0.9103467151153078 1.0000   
         C         C         1.0       0.6242043074536092  0.3809770216556011  0.9159206629074503 1.0000   
         C         C         1.0       0.6048241149122353  0.3623724252904295  0.8803989514365183 1.0000   
         C         C         1.0       0.6141054183181952  0.3236246964664953  0.8717390747001709 1.0000   
         C         C         1.0       0.5912595884410511  0.304029271968947   0.8461227421196241 1.0000   
         C         C         1.0       0.5606620236727117  0.32479836659402034           0.8248642769238073 1.0000   
         C         C         1.0       0.5567796772399071  0.36486934474681937           0.8305703112241386 1.0000   
         C         C         1.0       0.5812227902979303  0.3832873831216465  0.856749170739635  1.0000   
         C         C         1.0       0.6210914628707187  0.3680524904306302  0.9705398004455978 1.0000   
         C         C         1.0       0.6073003201766645  0.3504456909590084  0.9891150610613049 1.0000   
         C         C         1.0       0.5808959062190336  0.32168672283573885           0.9787949072135249 1.0000   
         C         C         1.0       0.5733821825413526  0.3052948338936159  0.9489223753295885 1.0000   
         C         C         1.0       0.5860067885324615  0.32592099982419925           0.9293323456936803 1.0000   
         C         C         1.0       0.6104011839916538  0.3571518328645478  0.9398594399917037 1.0000   
         C         C         1.0       0.558683995436211   0.30801277519335857           0.9987917003426812 1.0000   
         C         C         1.0       0.636557282303562   0.2233271000479057  0.05706801530249983          1.0000   
         C         C         1.0       0.6377798234559112  0.2637783277909035  0.0653899284088233 1.0000   
         C         C         1.0       0.6115950899523875  0.2886385164257503  0.046390879636671656         1.0000   
         C         C         1.0       0.5869873048108679  0.2750276922547472  0.01789252803549979          1.0000   
         C         C         1.0       0.5887777945237636  0.23631309417579488           0.008367474352993343         1.0000   
         C         C         1.0       0.6127017887759929  0.21031069148361123           0.028434379676672172         1.0000   
         C         C         1.0       0.5193203343612665  0.2933663457959051  0.9769765272656808 1.0000   
         C         C         1.0       0.4979729724046076  0.31434561379334364           0.95189916601198   1.0000   
         C         C         1.0       0.46697669748353915           0.30134161689320427          0.930020245000149  1.0000   
         C         C         1.0       0.45189993064013567           0.2641844046255808 0.9333781502677609 1.0000   
         C         C         1.0       0.4714187734580459  0.24162743794849573           0.9578912282819706 1.0000   
         C         C         1.0       0.5031872071652974  0.25490334223528477           0.9790304624814824 1.0000   
         C         C         1.0       0.5322101908675227  0.3231861216244392  0.03841379657728794          1.0000   
         C         C         1.0       0.5178175181899838  0.34639207405130273           0.05438186881276508          1.0000   
         C         C         1.0       0.5126054072475372  0.3856192182299362  0.04980814203322015          1.0000   
         C         C         1.0       0.013387539276368411          0.30666840170603643          0.05021993716302564          1.0000   
         C         C         1.0       0.540319171363212   0.3804447337881522  0.013535565678945316         1.0000   
         C         C         1.0       0.5462083481197456  0.33939574418588064           0.01822708620847191          1.0000   
         H         H         1.0       0.15501153893867317           0.19856762772199063          0.9252681063662751 1.0000   
         H         H         1.0       0.6752966905308465  0.323586253783957   0.955343004545743  1.0000   
         H         H         1.0       0.7380680003107603  0.3133802542602453  0.9639624362389189 1.0000   
         H         H         1.0       0.16196872547667426           0.13812544042766384          0.9016622706754452 1.0000   
         H         H         1.0       0.6374246713615457  0.3058967550265429  0.8853135844557609 1.0000   
         H         H         1.0       0.5954544579429141  0.2719213315229073  0.8431515445583342 1.0000   
         H         H         1.0       0.5302475984425055  0.37456387442494454           0.8168694634210081 1.0000   
         H         H         1.0       0.07931522230252432           0.31108434929712564          0.9282118038132108 1.0000   
         H         H         1.0       0.09512042934417982           0.25762930466683803          0.9931032373365458 1.0000   
         H         H         1.0       0.614447994798434   0.3607715753814982  0.013525209937137683         1.0000   
         H         H         1.0       0.5526798758782796  0.2827094237538442  0.9363422218132336 1.0000   
         H         H         1.0       0.5745345413838554  0.31525776813200335           0.9059082495365027 1.0000   
         H         H         1.0       0.6556605464990396  0.2749836368132687  0.08783129088833075          1.0000   
         H         H         1.0       0.6135998770440235  0.3179364882485897  0.056156188284504305         1.0000   
         H         H         1.0       0.5692522442557761  0.22651470910421345           0.9856289138853606 1.0000   
         H         H         1.0       0.608235238811779   0.17919409320414662           0.022364087069921323         1.0000   
         H         H         1.0       0.5073028682550428  0.3437203413210848  0.9478706132893883 1.0000   
         H         H         1.0       0.4512458336875553  0.31799392951360833           0.9098545452009065 1.0000   
         H         H         1.0       0.46171345639847483           0.21229088767703833          0.9615016440620531 1.0000   
         H         H         1.0       0.5128880364622864  0.23739815060102334           0.9997068519335282 1.0000   
         H         H         1.0       0.5408642424999581  0.2941379636312127  0.04667401203548516          1.0000   
         H         H         1.0       0.610427552553229   0.18264411581183976           0.5880401822661103 1.0000   
         H         H         1.0       0.029656791002851113          0.33379812952457216          0.05678838269540454          1.0000   
         H         H         1.0       0.9932729131158488  0.31412452410048197           0.0011839668050213081        1.0000   
         C         C         1.0       0.5815440307862794  0.31099669988672257           0.7334071308977417 1.0000   
         C         C         1.0       0.11180617981364185           0.3162616600007792 0.7398425693531518 1.0000   
         C         C         1.0       0.1238129274857903  0.30310989502812496           0.769652569637925  1.0000   
         C         C         1.0       0.11780215357920862           0.26386006962772424          0.7760278262060588 1.0000   
         C         C         1.0       0.0986682994085743  0.2394317849666533  0.7509297048867737 1.0000   
         C         C         1.0       0.5960201896864826  0.3110805638569225  0.7640812422021951 1.0000   
         H         H         1.0       0.11867911889081241           0.34457241740668565          0.7333675726619102 1.0000   
         H         H         1.0       0.1409167153190305  0.3219721237795888  0.7890821002038674 1.0000   
         H         H         1.0       0.6420025160446522  0.32062884517171825           0.8044638588525828 1.0000   
         H         H         1.0       0.5795963177879438  0.31683177815434027           0.7772827161004899 1.0000   
         C         C         1.0       0.08967930314665204           0.19131425371101043          0.8080106340327626 1.0000   
         C         C         1.0       0.12690587785165028           0.2005618395831874 0.8165390075222473 1.0000   
         C         C         1.0       0.15167156920160002           0.17171290839755907          0.8318326199696513 1.0000   
         C         C         1.0       0.13976019936074457           0.13624747578821123          0.8380122315605484 1.0000   
         C         C         1.0       0.10441159092795953           0.12955535672178062          0.8339847272152684 1.0000   
         C         C         1.0       0.07904299456092667           0.15641573909125367          0.8158963343047296 1.0000   
         C         C         1.0       0.13867665454977804           0.24464539676675331          0.8096232953529703 1.0000   
         C         C         1.0       0.1384191212632851  0.27068658238768656           0.8386408205727128 1.0000   
         C         C         1.0       0.16539499223719822           0.26354289167737777          0.868226094221384  1.0000   
         C         C         1.0       0.16983415322618245           0.29013206088661037          0.8918785638956568 1.0000   
         C         C         1.0       0.14803621779895584           0.32369698524256213          0.887199412476475  1.0000   
         C         C         1.0       0.11957536834725602           0.32645264406362146          0.8591264239595179 1.0000   
         C         C         1.0       0.1131741661728173  0.29804101543209455           0.8364431450140992 1.0000   
         C         C         1.0       0.18693760772595533           0.22095353629977713          0.7899489989019635 1.0000   
         C         C         1.0       0.214192688298078   0.23043900618208024           0.7815658011281719 1.0000   
         C         C         1.0       0.23507420191252162           0.264889206512691  0.792621852514312  1.0000   
         C         C         1.0       0.23079619280299105           0.28805703339436056          0.8163685020751328 1.0000   
         C         C         1.0       0.20207507263034544           0.279958005389515  0.8229086191869118 1.0000   
         C         C         1.0       0.17755552379484504           0.2473610251561226 0.8093827121921942 1.0000   
         C         C         1.0       0.2532086744282051  0.28306770238272394           0.7720968111802408 1.0000   
         C         C         1.0       0.3553870298582791  0.21948268897150913           0.8124758940511848 1.0000   
         C         C         1.0       0.3264695120725122  0.20246029853698572           0.7879036087465053 1.0000   
         C         C         1.0       0.2942381226615141  0.22269627900262387           0.7746202309712474 1.0000   
         C         C         1.0       0.29176104833243177           0.2621091444856238 0.785233485949818  1.0000   
         C         C         1.0       0.31917315665221585           0.27470385990217944          0.8118546320806962 1.0000   
         C         C         1.0       0.3511905140272853  0.25481076355272614           0.8249933771823297 1.0000   
         C         C         1.0       0.25523067522140847           0.33116674068666324          0.7732799781875177 1.0000   
         C         C         1.0       0.22829214767559527           0.35633437801656026          0.7732662057112402 1.0000   
         C         C         1.0       0.23102069008914036           0.39843685234478826          0.7725341022983581 1.0000   
         C         C         1.0       0.2608930550620254  0.41395899684050713           0.7724778525167622 1.0000   
         C         C         1.0       0.2872718038507095  0.3890103820018442  0.7700857725622402 1.0000   
         C         C         1.0       0.28454936066855474           0.3487014465732373 0.7704299702718982 1.0000   
         C         C         1.0       0.25013218665046866           0.27663250118077626          0.7164320641853097 1.0000   
         C         C         1.0       0.2318489917521768  0.2713685784379119  0.6851812909511626 1.0000   
         C         C         1.0       0.19393243803301752           0.2758779217558085 0.6717246287437093 1.0000   
         C         C         1.0       0.17585604276854055           0.2862949076372537 0.6907329055546645 1.0000   
         C         C         1.0       0.19558102997656113           0.28497271189831763          0.7221040816116274 1.0000   
         C         C         1.0       0.23230393226384025           0.28020574033360646          0.73582864765891   1.0000   
         H         H         1.0       0.06895393019406687           0.21332104515013417          0.7945179515952643 1.0000   
         H         H         1.0       0.18139020450188018           0.1762185517530883 0.8403514292470118 1.0000   
         H         H         1.0       0.15922434098235963           0.11210612685375244          0.8482777571060586 1.0000   
         H         H         1.0       0.7324786278955773  0.26404839565138827           0.8745270046117556 1.0000   
         H         H         1.0       0.18200814207965604           0.23610334146274733          0.8739062711708506 1.0000   
         H         H         1.0       0.18880911612522247           0.28513266446309765          0.9145410175501175 1.0000   
         H         H         1.0       0.10247629198938096           0.3513126838596826 0.8539283147551001 1.0000   
         H         H         1.0       0.09142430831111627           0.3031869743286765 0.8158156357601961 1.0000   
         H         H         1.0       0.16843751382159364           0.19712857730142888          0.7790833490466808 1.0000   
         H         H         1.0       0.21738856767746875           0.21067219258482667          0.7630973338436471 1.0000   
         H         H         1.0       0.24876021436488446           0.312492287464918  0.8255533693240812 1.0000   
         H         H         1.0       0.20133681936708933           0.299379342787383  0.8409794118156463 1.0000   
         H         H         1.0       0.3260298059832794  0.17438059887761226           0.7791733855762424 1.0000   
         H         H         1.0       0.27309062785540145           0.20357898961476947          0.7582224345832946 1.0000   
         H         H         1.0       0.3153920157967256  0.29786619436375583           0.8255015773174207 1.0000   
         H         H         1.0       0.37069202698014386           0.2648556541634316 0.846698152669834  1.0000   
         H         H         1.0       0.20293784869883608           0.3470117932611238 0.7738152226752516 1.0000   
         H         H         1.0       0.20945151801118664           0.4158470435738373 0.7769044419259079 1.0000   
         H         H         1.0       0.3129285472353591  0.40042460258441054           0.7715824737398046 1.0000   
         H         H         1.0       0.3057562131855481  0.3314534878018442  0.7659337858769465 1.0000   
         H         H         1.0       0.2810822186164568  0.2759625648942114  0.7269354722395518 1.0000   
         H         H         1.0       0.24681532751849697           0.2680516904767342 0.6712347820674067 1.0000   
         H         H         1.0       0.14665151020346515           0.29295718928656017          0.6810912684132581 1.0000   
         H         H         1.0       0.18170765874725997           0.29072531724479295          0.7372095234337745 1.0000   
         C         C         1.0       0.1727549894574621  0.22871008961325776           0.6276862090252201 1.0000   
         C         C         1.0       0.17364468178332917           0.2717483916819643 0.6377013675226906 1.0000   
         H         H         1.0       0.1606086796859916  0.20879953370099127           0.639401199341979  1.0000   
         H         H         1.0       0.20041315551996444           0.2164441993073614 0.6329515527375633 1.0000   
         H         H         1.0       0.18645373408589683           0.289897461381079  0.6261960647949826 1.0000   
         H         H         1.0       0.14581826581304363           0.2834353123115612 0.6317941993970803 1.0000   
         C         C         1.0       0.09338951519326988           0.08885917013856104          0.8432041154658542 1.0000   
         C         C         1.0       0.7757164137191778  0.3516453354685731  0.9368431583257746 1.0000   
         H         H         1.0       0.06411573309114746           0.09098145313618655          0.839315762688272  1.0000   
         H         H         1.0       0.09189868519986892           0.06475808164810036          0.8255690870938038 1.0000   
         H         H         1.0       0.794715722285523   0.3442274977790687  0.9592301909653881 1.0000   
         H         H         1.0       0.14178976992340198           0.06597992929380792          0.8822360336716037 1.0000   
         C         C         1.0       0.29073988610712587           0.47032070254788744          0.810203118712527  1.0000   
         C         C         1.0       0.26913158814574    0.458439261945178   0.77609340448912   1.0000   
         H         H         1.0       0.2755722957189032  0.45686356778773124           0.8234383812355662 1.0000   
         H         H         1.0       0.28773620435230673           0.5037024756439368 0.8136895533182836 1.0000   
         H         H         1.0       0.24347343793888113           0.4743073665028668 0.7696252107427173 1.0000   
         H         H         1.0       0.28620529339375805           0.4667272317988904 0.7626241548342856 1.0000   
         C         C         1.0       0.5420322418706123  0.32232657800788594           0.7170718340920289 1.0000   
         C         C         1.0       0.5310891928605044  0.3629709886722991  0.7000875114608831 1.0000   
         H         H         1.0       0.5272638217099914  0.3171877778183807  0.7320414124301675 1.0000   
         H         H         1.0       0.5309283676593486  0.2992443366668021  0.6994220414729437 1.0000   
         H         H         1.0       0.5041724748354023  0.35893383086039976           0.6814161232328834 1.0000   
         H         H         1.0       0.5479710985446352  0.36962743002673465           0.6867433905256558 1.0000   
         C         C         1.0       0.5002226820247276  0.28665645545063534           0.8125282471777235 1.0000   
         C         C         1.0       0.5285019087580877  0.3031611846874647  0.8004624722027365 1.0000   
         H         H         1.0       0.514332637053841   0.2665328264317453  0.8317031073215896 1.0000   
         H         H         1.0       0.47926831042979    0.2699255287253713  0.7927848324766243 1.0000   
         H         H         1.0       0.5143441076435348  0.32570967664782313           0.780745981495908  1.0000   
         H         H         1.0       0.5420927695035613  0.2777634092660925  0.7923005095518331 1.0000   
         C         C         1.0       0.22640019618136764           0.3022498116857259 0.060405656133259544         1.0000   
         C         C         1.0       0.23368064794745777           0.27826954816024285          0.034335877045942986         1.0000   
         H         H         1.0       0.2039910525242988  0.32358377461339255           0.05033248901295462          1.0000   
         H         H         1.0       0.2166155153928873  0.2802053586101038  0.0727191652978505 1.0000   
         H         H         1.0       0.2526898065801522  0.2539611348774634  0.044641732987299454         1.0000   
         H         H         1.0       0.25119274482732656           0.297939199667766  0.025696008045228647         1.0000   
         C         C         1.0       0.38445982339081314           0.24789975006218776          0.9214783751726949 1.0000   
         C         C         1.0       0.4154916083563219  0.24920135455935385           0.9099306553134989 1.0000   
         H         H         1.0       0.38968850752083883           0.22624770565100225          0.9393607381583887 1.0000   
         H         H         1.0       0.35892672458579317           0.23228629711928137          0.9025433255201504 1.0000   
         H         H         1.0       0.4181100159962257  0.21848821398363708           0.9013145250248709 1.0000   
         H         H         1.0       0.41047813587422577           0.2689069523590295 0.8902368127483806 1.0000   
         C         C         1.0       0.15499778193447752           0.3570474783670693 0.9109910540251622 1.0000   
         C         C         1.0       0.1805615227263148  0.3903816268921601  0.9095928799952752 1.0000   
         H         H         1.0       0.12951105766331064           0.3756170384292471 0.9067046485282307 1.0000   
         H         H         1.0       0.16456300709033744           0.34317198947195665          0.933299351880766  1.0000   
         H         H         1.0       0.16830780564919845           0.4173608397430405 0.9124044251692149 1.0000   
         H         H         1.0       0.179262058329606   0.39057611620553784           0.8862225047501457 1.0000   
         C         C         1.0       0.40571834491752823           0.6320742664030278 0.6809735707126656 1.0000   
         C         C         1.0       0.4454870817943203  0.641054925210798   0.6973182785620632 1.0000   
         H         H         1.0       0.3962094711738035  0.6184150636070798  0.6984753272886061 1.0000   
         H         H         1.0       0.39415675094982194           0.6612204796101083 0.6768819369979271 1.0000   
         H         H         1.0       0.5295876912085506  0.3117106308295606  0.1900603703110555 1.0000   
         H         H         1.0       0.5441418396886434  0.2944439670734969  0.22940683727329536          1.0000   
         C         C         1.0       0.4363379911533175  0.5165782362076062  0.9709755671653321 1.0000   
         C         C         1.0       0.473002214909768   0.5026332200754305  0.9718702943325209 1.0000   
         H         H         1.0       0.42457728495326996           0.5421572731590932 0.9560959564136099 1.0000   
         H         H         1.0       0.4395576665544092  0.5344336946418199  0.9920566285600699 1.0000   
         H         H         1.0       0.4855872700709675  0.484444858303566   0.9911967727263405 1.0000   
         H         H         1.0       0.4901343034990307  0.5297810248148707  0.9726974012725071 1.0000   
         C         C         1.0       0.40239013689882625           0.16374108058819614          0.8433875501699356 1.0000   
         C         C         1.0       0.3931117654568878  0.20121526492620656           0.8229323865546351 1.0000   
         H         H         1.0       0.3994661126975908  0.17490254740315683           0.8649373729551894 1.0000   
         H         H         1.0       0.4301863413628572  0.1535979647353567  0.8511947062897015 1.0000   
         H         H         1.0       0.3946536850897777  0.18986617852331325           0.8008394986235893 1.0000   
         H         H         1.0       0.41635677018876754           0.2228073238643381 0.8341092285226209 1.0000   
         C         C         1.0       0.6255358453639068  0.17883113574294043           0.094709367102227  1.0000   
         C         C         1.0       0.6532011685026027  0.19229932502130767           0.08144903832136663          1.0000   
         H         H         1.0       0.6019033706399678  0.19843946540878613           0.08973080088200547          1.0000   
         H         H         1.0       0.6403858091685795  0.1811703702304193  0.12124690774908986          1.0000   
         H         H         1.0       0.6640790130937605  0.16837480092829488           0.07098339231302608          1.0000   
         H         H         1.0       0.6789406856033473  0.20547365351843758           0.10080189251985083          1.0000   
         C         C         1.0       0.6836487772954933  0.0665437237069777  0.7028741289510166 1.0000   
         C         C         1.0       0.2030514109291108  0.16098030685068299           0.6993614086756241 1.0000   
         H         H         1.0       0.6901289326855233  0.09828074420526467           0.7073632573925608 1.0000   
         H         H         1.0       0.6787091703272736  0.057596699961414144         0.7235534793554915 1.0000   
         H         H         1.0       0.2138739616148249  0.1661225156068551  0.6818971977285697 1.0000   
         H         H         1.0       0.20731141911763235           0.18797932261992067          0.7155003053994676 1.0000   
         C         C         1.0       0.2637220994989959  0.8944702159998069  0.9652964132732055 1.0000   
         C         C         1.0       0.22745784340024158           0.8743873391110756 0.9568655965084935 1.0000   
         H         H         1.0       0.28684560149754923           0.8803723956864038 0.9841468755511749 1.0000   
         H         H         1.0       0.2589993527027571  0.9238629053743054  0.977230552741206  1.0000   
         H         H         1.0       0.23077584562337353           0.8420296686667494 0.9501024997880994 1.0000   
         H         H         1.0       0.21017667100300988           0.8876828479266679 0.936175139544249  1.0000   
         C         C         1.0       0.6533270376309479  0.639729947239653   0.8044016351770591 1.0000   
         C         C         1.0       0.643829755672573   0.6163951015211706  0.8283650602361086 1.0000   
         H         H         1.0       0.6510771553865591  0.6191618596170851  0.7852670335910904 1.0000   
         H         H         1.0       0.6825681240503373  0.64555069230659    0.8153818189071399 1.0000   
         H         H         1.0       0.6392625168905419  0.6393365637286688  0.8433980075302726 1.0000   
         H         H         1.0       0.6681994533160104  0.5978054999999579  0.8425105451907405 1.0000   
         C         C         1.0       0.3653243303560651  0.8650910282774427  0.7424135137033779 1.0000   
         C         C         1.0       0.33628962397134643           0.8792549472748279 0.7545321725730296 1.0000   
         H         H         1.0       0.3489780499709886  0.8485779565421495  0.7206446928357477 1.0000   
         H         H         1.0       0.3754519915903875  0.8885732533526559  0.7335585053866783 1.0000   
         H         H         1.0       0.3447466344984897  0.869608024819397   0.7785723957748143 1.0000   
         H         H         1.0       0.3078164282204162  0.8674898985329896  0.7422562218188296 1.0000   
         C         C         1.0       0.6349071124375373  0.9631822050356376  0.7929194797844066 1.0000   
         C         C         1.0       0.6420832679481485  0.9333743914739858  0.7697897384507137 1.0000   
         H         H         1.0       0.6166478421348012  0.9862840606040063  0.7780869316223031 1.0000   
         H         H         1.0       0.6205140613293467  0.9491702619669977  0.8068769495655486 1.0000   
         H         H         1.0       0.6700189721201093  0.9261204816648585  0.7833257866013141 1.0000   
         H         H         1.0       0.6421598423578125  0.9486029927042797  0.7501134263260548 1.0000   
         C         C         1.0       0.5688300342243441  0.8632054034545934  0.9391884012805378 1.0000   
         C         C         1.0       0.6040459441550459  0.871248418579299   0.9330213639083847 1.0000   
         H         H         1.0       0.5542308745613859  0.8921933223670233  0.9390485360029343 1.0000   
         H         H         1.0       0.5783704906202591  0.855257516668741   0.9628116813231841 1.0000   
         H         H         1.0       0.6241523815675044  0.8501879905910551  0.9458438083338762 1.0000   
         H         H         1.0       0.6000940759848135  0.8615132457825656  0.9091820721591479 1.0000   
         C         C         1.0       0.3917889430618575  0.5648898740402338  0.12971039947986496          1.0000   
         C         C         1.0       0.36710319678924436           0.5819806097000059 0.09811181588051965          1.0000   
         H         H         1.0       0.38547504404346283           0.5794333289739685 0.14919857356040622          1.0000   
         H         H         1.0       0.4193334317747894  0.5738423870256114  0.13369131264324485          1.0000   
         H         H         1.0       0.3376382874767825  0.5761364197193354  0.09143838147539274          1.0000   
         H         H         1.0       0.36998441782032365           0.5631091939079967 0.07970587258237627          1.0000   
         C         C         1.0       0.3269906272168517  0.8978205295469299  0.13372208088830861          1.0000   
         C         C         1.0       0.34839067867730505           0.8917104503396053 0.1119197012887907 1.0000   
         H         H         1.0       0.3381399051026702  0.9237422174596731  0.1490801038458387 1.0000   
         H         H         1.0       0.3370961997422342  0.8735549370437504  0.15043217745854798          1.0000   
         H         H         1.0       0.3787149250097012  0.8988023564381672  0.1271464169759755 1.0000   
         H         H         1.0       0.34527585779712705           0.9182393256233764 0.09610300370774194          1.0000   
         C         C         1.0       0.43984238647202795           0.8994512713523903 0.014159360643058116         1.0000   
         C         C         1.0       0.43890346141860404           0.9399824679991257 0.9958679707390967 1.0000   
         H         H         1.0       0.4187836059726966  0.9000923733748347  0.022630971922325216         1.0000   
         H         H         1.0       0.4636639784647199  0.8957523629808666  0.03636314984908218          1.0000   
         H         H         1.0       0.43517859253956637           0.9332429373823677 0.9719773665306669 1.0000   
         H         H         1.0       0.4173480020366143  0.9589604862067218  0.9958267847890551 1.0000   
         C         C         1.0       0.30511571570916635           0.741302820827019  0.8117011801319362 1.0000   
         C         C         1.0       0.3063627745399319  0.7796851064773191  0.7929308041533271 1.0000   
         H         H         1.0       0.27625974956353033           0.7413336210529924 0.8088098538640542 1.0000   
         H         H         1.0       0.3103883086878016  0.7116158172084668  0.800228519623572  1.0000   
         H         H         1.0       0.2913628534335343  0.7714229820048211  0.7683922920929357 1.0000   
         H         H         1.0       0.33388836088141977           0.7852192829309669 0.7948800166306419 1.0000   
         C         C         1.0       0.47774302474799524           0.8436753093466938 0.6119094509219154 1.0000   
         C         C         1.0       0.48043901622929946           0.7965352968478395 0.6175097509041549 1.0000   
         H         H         1.0       0.4874492869318184  0.860088835365791   0.6337324343126324 1.0000   
         H         H         1.0       0.4997053209693742  0.8514830222962965  0.6042237634992285 1.0000   
         H         H         1.0       0.49489178280918994           0.7817793237396607 0.6043893050990272 1.0000   
         H         H         1.0       0.454009543333194   0.7825543917928018  0.6086574776119522 1.0000   
         C         C         1.0       0.4793661918009718  0.6121129415686387  0.883603828995764  1.0000   
         C         C         1.0       0.4955948777065443  0.6278005343808793  0.9183386738059022 1.0000   
         H         H         1.0       0.45501779675271464           0.5939652833375942 0.8797952665653027 1.0000   
         H         H         1.0       0.4979926610578042  0.5909479582794983  0.87838112502062   1.0000   
         H         H         1.0       0.523538825542765   0.6411666720818664  0.9240494521636132 1.0000   
         H         H         1.0       0.49908325702952727           0.6003500351342629 0.9326735634126195 1.0000   
         C         C         1.0       0.006377188976496528          0.8892062284812169 0.6129168763697681 1.0000   
         C         C         1.0       0.9735773313373447  0.9030037639846948  0.5940888228357658 1.0000   
         C         C         1.0       0.9527821044847741  0.8826270632332026  0.5678352605481128 1.0000   
         C         C         1.0       0.9625058363673732  0.8466977148977871  0.5576557148464089 1.0000   
         C         C         1.0       0.9963755157815269  0.8316038442449742  0.5791253838764582 1.0000   
         C         C         1.0       0.01667398154301214           0.852357471969119  0.605846052223519  1.0000   
         H         H         1.0       0.9649669535801754  0.9313647031890744  0.5991541836334854 1.0000   
         H         H         1.0       0.9273122660469478  0.8948524201120711  0.554315639831132  1.0000   
         H         H         1.0       0.0008131959129225041         0.8004727713239038 0.5764002264183284 1.0000   
         H         H         1.0       0.039100173193172605          0.8368430710995179 0.6224263916994601 1.0000   
         C         C         1.0       0.9858755625365706  0.7873765196308731  0.5130018833488632 1.0000   
         C         C         1.0       0.9542437415232066  0.7844734396523445  0.5174787126703067 1.0000   
         C         C         1.0       0.9354059321387262  0.7472336049593795  0.5090405085063561 1.0000   
         C         C         1.0       0.9465344121737691  0.7179182333657943  0.4935954764975044 1.0000   
         C         C         1.0       0.9748500528662162  0.7246318552336595  0.4846748808375353 1.0000   
         C         C         1.0       0.9949528571522036  0.75881299768167    0.4957275632115568 1.0000   
         C         C         1.0       0.9353858379646186  0.8231208532786682  0.5265146304229092 1.0000   
         C         C         1.0       0.9217990151092692  0.8474777572503578  0.49522700224178645          1.0000   
         C         C         1.0       0.8977474119209424  0.8288839093602742  0.4676599319625401 1.0000   
         C         C         1.0       0.8767318201153009  0.8518193012474351  0.443664843075259  1.0000   
         C         C         1.0       0.8777329065575706  0.8925992516473616  0.445268367345576  1.0000   
         C         C         1.0       0.9061168709147839  0.9111797911515243  0.4692346565751229 1.0000   
         C         C         1.0       0.929020317494761   0.8876643442322499  0.4934451340787964 1.0000   
         C         C         1.0       0.9063441096693664  0.7950144037344669  0.5641287651757079 1.0000   
         C         C         1.0       0.8789125811811002  0.7931029822984225  0.5750533553630087 1.0000   
         C         C         1.0       0.8457667092958322  0.8096756022415141  0.5585325371586265 1.0000   
         C         C         1.0       0.8378109546947635  0.8199768488467762  0.5278900744583408 1.0000   
         C         C         1.0       0.8672524290395158  0.8252634560836315  0.5199931111731767 1.0000   
         C         C         1.0       0.9017531932353913  0.8136260239840969  0.5372918647115473 1.0000   
         C         C         1.0       0.8122274293547432  0.8086983462006573  0.5697714532506307 1.0000   
         C         C         1.0       0.7844142455901123  0.683295473641129   0.5455583952135405 1.0000   
         C         C         1.0       0.8020599321125305  0.6948523419331745  0.5749619811750829 1.0000   
         C         C         1.0       0.8118143374615892  0.7347557498276734  0.5815298613954839 1.0000   
         C         C         1.0       0.7984164341213091  0.7638110666007359  0.5598788110557832 1.0000   
         C         C         1.0       0.7752427042944627  0.7511996458579877  0.5300208053582277 1.0000   
         C         C         1.0       0.7699040981547326  0.7097664370374023  0.5231609026082913 1.0000   
         C         C         1.0       0.7810334085621262  0.843054933542868   0.5537489392141622 1.0000   
         C         C         1.0       0.792618475129768   0.8821546183391233  0.5512694189708686 1.0000   
         C         C         1.0       0.767983180796396   0.9136054544367747  0.5439383793703807 1.0000   
         C         C         1.0       0.7319258360813526  0.9075854823685119  0.5359425658791458 1.0000   
         C         C         1.0       0.7206579093601779  0.8688569933419346  0.5341796779010513 1.0000   
         C         C         1.0       0.7442028372047882  0.8367958620027268  0.5445349218540108 1.0000   
         C         C         1.0       0.7999397062436626  0.8113005762496657  0.6195255504226935 1.0000   
         C         C         1.0       0.8085230280471533  0.8257687799179836  0.6497161099407924 1.0000   
         C         C         1.0       0.8345046981210397  0.8555410140104667  0.6622173629477641 1.0000   
         C         C         1.0       0.8531885062395959  0.8686604856101401  0.6466420783468338 1.0000   
         C         C         1.0       0.8483194324629145  0.8504492182237828  0.6185104436385911 1.0000   
         C         C         1.0       0.8212033109364019  0.821837866022133   0.6043235382807407 1.0000   
         H         H         1.0       0.9999670753956048  0.8147399609871139  0.5190909427947873 1.0000   
         H         H         1.0       0.9082860107761018  0.739282941717589   0.5082484295879101 1.0000   
         H         H         1.0       0.9283941022309253  0.6903761893942109  0.4847637709541983 1.0000   
         H         H         1.0       0.018019243694379794          0.7659160230298571 0.48983794084822585          1.0000   
         H         H         1.0       0.8897066994423664  0.7972536070497936  0.46428153329337035          1.0000   
         H         H         1.0       0.856330327030267   0.8380434276168722  0.42391803621453894          1.0000   
         H         H         1.0       0.9091665091159368  0.9428600181214848  0.4694619392936332 1.0000   
         H         H         1.0       0.9477258995732067  0.9038916476661835  0.5140439111524584 1.0000   
         H         H         1.0       0.9322409781652596  0.7798865854722579  0.5769687816457478 1.0000   
         H         H         1.0       0.8829981225101439  0.7743292547195604  0.5951540766916085 1.0000   
         H         H         1.0       0.8103991733064886  0.8321510581842667  0.5125148196407127 1.0000   
         H         H         1.0       0.8567419693678449  0.8350585948128536  0.496209795087526  1.0000   
         H         H         1.0       0.809746129938261   0.6723192364686129  0.5916006368250433 1.0000   
         H         H         1.0       0.8280804930104596  0.740920457188183   0.6060006049218363 1.0000   
         H         H         1.0       0.7634214528925045  0.7715778539931898  0.5116588459679555 1.0000   
         H         H         1.0       0.75631921411969    0.700442588292269   0.49916739492766166          1.0000   
         H         H         1.0       0.8222762487819307  0.8940407337973192  0.559415645568355  1.0000   
         H         H         1.0       0.7765867631121783  0.9435577406399323  0.5417594775283189 1.0000   
         H         H         1.0       0.6920657383803613  0.8650248570135284  0.5274754002549732 1.0000   
         H         H         1.0       0.7316304253749221  0.8083052748151388  0.5450825765363895 1.0000   
         H         H         1.0       0.7795912195529234  0.7887521225234879  0.6121781115260833 1.0000   
         H         H         1.0       0.792863220061724   0.8142339212098855  0.6627074059470422 1.0000   
         H         H         1.0       0.8696836885653965  0.8937509883059084  0.655387103662781  1.0000   
         H         H         1.0       0.8646100024254366  0.8593994379808554  0.606920997054301  1.0000   
         C         C         1.0       0.9174128548151657  0.9330231556435975  0.3462857079555206 1.0000   
         C         C         1.0       0.9541852369827012  0.939424531863805   0.35231229562493305          1.0000   
         C         C         1.0       0.978117199825005   0.9090372100233238  0.3628442602888522 1.0000   
         C         C         1.0       0.9657449077392811  0.8714444847266734  0.36296045336084987          1.0000   
         C         C         1.0       0.9289384705338176  0.8651686060597672  0.3558160731806221 1.0000   
         C         C         1.0       0.9062507193009693  0.8959805184005891  0.34914909881528006          1.0000   
         H         H         1.0       0.964885885352887   0.967678862136441   0.3497797516728329 1.0000   
         H         H         1.0       0.00746625221101338           0.917932901845357  0.36924417012042227          1.0000   
         H         H         1.0       0.916890693412599   0.835278941266577   0.3520352563439598 1.0000   
         H         H         1.0       0.8774770140306987  0.8903758747218158  0.34093405636264085          1.0000   
         C         C         1.0       0.9690941043336693  0.8014048157213889  0.4047952990019238 1.0000   
         C         C         1.0       0.9840194412011165  0.7959916521369734  0.38368191302016635          1.0000   
         C         C         1.0       0.9916323409801878  0.7562231303058379  0.37736904524897247          1.0000   
         C         C         1.0       0.9853808947345554  0.7228562628385734  0.39294465572435866          1.0000   
         C         C         1.0       0.9714371950117688  0.731208451530791   0.41437636840642156          1.0000   
         C         C         1.0       0.961520990283587   0.7703417286392392  0.419776710634672  1.0000   
         C         C         1.0       0.9916974246175276  0.8328690574581806  0.3656420540415413 1.0000   
         C         C         1.0       0.03224961845958063           0.8425725996912962 0.3866937412084011 1.0000   
         C         C         1.0       0.058483286012843916          0.8249717014242356 0.37965345288716773          1.0000   
         C         C         1.0       0.09288721470191486           0.8266984552615365 0.4015585148171034 1.0000   
         C         C         1.0       0.10244648697439374           0.8440055270122518 0.43106983643934055          1.0000   
         C         C         1.0       0.07615780992228172           0.8631578115050806 0.43797212467910834          1.0000   
         C         C         1.0       0.04224338012403028           0.8620785984530595 0.41570211847081023          1.0000   
         C         C         1.0       0.9510941158308471  0.8030100467920966  0.31036461551947386          1.0000   
         C         C         1.0       0.9355691954484995  0.8076124141910623  0.2793910129593708 1.0000   
         C         C         1.0       0.9476211405655875  0.8350501366139655  0.26444588323280127          1.0000   
         C         C         1.0       0.9786095301213663  0.8575577197649402  0.28225101826931087          1.0000   
         C         C         1.0       0.9942649713456482  0.8529784295328867  0.3130638151147632 1.0000   
         C         C         1.0       0.9806860249234147  0.8263428478147647  0.3281911766552485 1.0000   
         C         C         1.0       0.9248294916253496  0.8468274748634161  0.22939794293371626          1.0000   
         C         C         1.0       0.9687355917700137  0.7573353947363318  0.18651893479102352          1.0000   
         C         C         1.0       0.9383654734666521  0.7479215190788104  0.19051424659670207          1.0000   
         C         C         1.0       0.9237862044373489  0.7764508370079224  0.20411992919786967          1.0000   
         C         C         1.0       0.9403772258763756  0.8137949788117735  0.21262311377490845          1.0000   
         C         C         1.0       0.9732511689422363  0.8195328721929556  0.2107790191212728 1.0000   
         C         C         1.0       0.9874739159926751  0.7912077377479816  0.19763266264328871          1.0000   
         C         C         1.0       0.9262169356163157  0.8914739499990905  0.21719351419459318          1.0000   
         C         C         1.0       0.9280728624725972  0.9263547317889688  0.23363802186734473          1.0000   
         C         C         1.0       0.935378847386374   0.9631375444119528  0.22518045485625468          1.0000   
         C         C         1.0       0.9350621534854734  0.9672350004261779  0.19644998165258593          1.0000   
         C         C         1.0       0.9299410840524851  0.9335049136615905  0.17760931317489909          1.0000   
         C         C         1.0       0.9237559207790582  0.8966696373230186  0.18646303736061437          1.0000   
         C         C         1.0       0.856468345400194   0.8355305775888929  0.19285820575728935          1.0000   
         C         C         1.0       0.8199156428950041  0.8457547598323132  0.18490778191014642          1.0000   
         C         C         1.0       0.8088691769634896  0.8641293546470973  0.20570593861145836          1.0000   
         C         C         1.0       0.8354576119876206  0.8760228375065008  0.23402609755311268          1.0000   
         C         C         1.0       0.8704732589090141  0.8640054846393683  0.24221287807183686          1.0000   
         C         C         1.0       0.8828437498478555  0.8456483296771756  0.22169133958985748          1.0000   
         H         H         1.0       0.9630658646486818  0.8302577344415387  0.4108010974326241 1.0000   
         H         H         1.0       0.004637103539560483          0.7521967168409497 0.3609281686661767 1.0000   
         H         H         1.0       0.9888134550199944  0.6910989015784013  0.3886144397943975 1.0000   
         H         H         1.0       0.9468263917484054  0.7757940039220439  0.435048054194837  1.0000   
         H         H         1.0       0.05074520054414289           0.8103445517627643 0.3586499217162898 1.0000   
         H         H         1.0       0.11236968300654682           0.8077150333208419 0.3999989647369996 1.0000   
         H         H         1.0       0.08178411549983555           0.8736519921065383 0.46130611388134696          1.0000   
         H         H         1.0       0.019585172571136233          0.8748326831603177 0.41993859422686697          1.0000   
         H         H         1.0       0.9379397043616933  0.7843428877725694  0.3219684838564004 1.0000   
         H         H         1.0       0.9127060409236901  0.7896127833882831  0.26906900578694254          1.0000   
         H         H         1.0       0.9903970733904933  0.8777145237837591  0.27141733801255985          1.0000   
         H         H         1.0       0.018576657684045816          0.8732340028338524 0.32514336216876305          1.0000   
         H         H         1.0       0.9222387526595908  0.7212082417544922  0.18158744052988524          1.0000   
         H         H         1.0       0.8976637682214709  0.7710115039415935  0.2041847758901293 1.0000   
         H         H         1.0       0.9843700204673012  0.8500176239427382  0.21674729187766814          1.0000   
         H         H         1.0       0.012695177417680004          0.8000046138333516 0.19563413924269688          1.0000   
         H         H         1.0       0.9288167688694735  0.921162131259896   0.25629791976845556          1.0000   
         H         H         1.0       0.9427346945063898  0.9870124780431161  0.24204840057116833          1.0000   
         H         H         1.0       0.9305362042843305  0.9382741792206674  0.15548883756688328          1.0000   
         H         H         1.0       0.9195769771985867  0.8721257059617852  0.16979124430544298          1.0000   
         H         H         1.0       0.8618817184920355  0.8206748200379742  0.17446109010767838          1.0000   
         H         H         1.0       0.8005643016915823  0.8369588010554518  0.16233201690693994          1.0000   
         H         H         1.0       0.82555447267253    0.8888582115040565  0.2503929317832969 1.0000   
         H         H         1.0       0.8883677931014178  0.8748395572877007  0.2636507079763445 1.0000   
         C         C         1.0       0.9704413582529087  0.12487387493803286           0.5020669647209731 1.0000   
         C         C         1.0       0.9963978478019487  0.15096287971197372           0.5228854187509947 1.0000   
         C         C         1.0       0.027327577247662882          0.13412812182118938          0.5448359356665117 1.0000   
         C         C         1.0       0.03095466935369262           0.09327925621667621          0.5483082076868716 1.0000   
         C         C         1.0       0.0017307243383035686         0.06890297682295365          0.5295531362047262 1.0000   
         C         C         1.0       0.9732613125089834  0.08468897741590031           0.505223452405584  1.0000   
         H         H         1.0       0.9952208230299953  0.1812039816178253  0.5197124791980631 1.0000   
         H         H         1.0       0.049161488913969986          0.153015769173785  0.5574151989167275 1.0000   
         H         H         1.0       0.006412142610606297          0.03709629191693509          0.5283085701289181 1.0000   
         H         H         1.0       0.9554742359948104  0.06239949460999883           0.4902359704783992 1.0000   
         C         C         1.0       0.037918807958616574          0.030887195481272833         0.5976434490424585 1.0000   
         C         C         1.0       0.0653958965131165  0.034782328057944234         0.5872883544507084 1.0000   
         C         C         1.0       0.0882381875225895  0.0016158725249439954        0.5922102174640849 1.0000   
         C         C         1.0       0.08883387558535283           0.9724118677341383 0.6120664830403272 1.0000   
         C         C         1.0       0.06267203926248355           0.9705256487191365 0.623332799122876  1.0000   
         C         C         1.0       0.03512957536493522           0.9982434513653831 0.6132703566035479 1.0000   
         C         C         1.0       0.0688766220626229  0.07385131756443242           0.5690392945163093 1.0000   
         C         C         1.0       0.09464511670890063           0.09954302510873547          0.598684199847654  1.0000   
         C         C         1.0       0.13123953055918203           0.0962047753706794 0.6094969598745265 1.0000   
         C         C         1.0       0.15342290358957444           0.11232228278344136          0.637523772130747  1.0000   
         C         C         1.0       0.13851189979473988           0.13395719916043958          0.6546449668072188 1.0000   
         C         C         1.0       0.1022435439460414  0.139762146761216   0.6428736520522017 1.0000   
         C         C         1.0       0.08000422598275803           0.1204474475543551 0.6161765753705515 1.0000   
         C         C         1.0       0.0731852640802555  0.03443541252978721           0.5207275122053064 1.0000   
         C         C         1.0       0.08811939930640045           0.0259756245608056 0.4992457272794574 1.0000   
         C         C         1.0       0.11576797960401164           0.049874979115070994         0.5001187652104185 1.0000   
         C         C         1.0       0.12321242759346385           0.08543567327057677          0.5175149858655672 1.0000   
         C         C         1.0       0.10768116597561228           0.09294492145712052          0.5379633961799957 1.0000   
         C         C         1.0       0.08329294903221784           0.06719867091523302          0.5412209195443372 1.0000   
         C         C         1.0       0.13709397603972406           0.04120682793311836          0.4787009106901795 1.0000   
         C         C         1.0       0.15466031523001167           0.9125058926652843 0.4618038430972298 1.0000   
         C         C         1.0       0.1492717109684767  0.939859077345267   0.4388881836566282 1.0000   
         C         C         1.0       0.1426822231032845  0.9797620414327317  0.4438579978238121 1.0000   
         C         C         1.0       0.13957720552297603           0.9934863971772682 0.4714621183534184 1.0000   
         C         C         1.0       0.14405305806538293           0.9644928259501601 0.49361896901756075          1.0000   
         C         C         1.0       0.1517337648327617  0.9246050537097584  0.4883496509328492 1.0000   
         C         C         1.0       0.609071048301164   0.033598075692994334         0.4765848835693878 1.0000   
         C         C         1.0       0.6417972590826829  0.04382473290923272           0.5000769226495717 1.0000   
         C         C         1.0       0.6743189303195486  0.02360873472190783           0.504657898241948  1.0000   
         C         C         1.0       0.6710027606883934  0.9903101559127481  0.48613981821787344          1.0000   
         C         C         1.0       0.6384282354293198  0.9799307076171305  0.4612029098494955 1.0000   
         C         C         1.0       0.6088260576251697  0.0033076049581099998        0.45707911295228326          1.0000   
         C         C         1.0       0.1177053003904398  0.10541224243228675           0.44499166120063366          1.0000   
         C         C         1.0       0.0984295593700546  0.1256508316413325  0.41799661633527263          1.0000   
         C         C         1.0       0.07452343539311279           0.10615043109199296          0.3913912115586368 1.0000   
         C         C         1.0       0.06656198088357823           0.06769877378737132          0.3947990634738158 1.0000   
         C         C         1.0       0.08772815934914457           0.04639109098260663          0.4214731288413513 1.0000   
         C         C         1.0       0.11421998724678994           0.06542912795989997          0.44819127400048747          1.0000   
         H         H         1.0       0.019963353752255664          0.05485524614125792          0.594846117855195  1.0000   
         H         H         1.0       0.11264646695985192           0.006690937385340989         0.5863165173997328 1.0000   
         H         H         1.0       0.106720412337719   0.948682227391679   0.6156427550672849 1.0000   
         H         H         1.0       0.011865563390639489          0.9967514402221372 0.618609729881797  1.0000   
         H         H         1.0       0.14119162668155716           0.07590129729449191          0.5963773505167449 1.0000   
         H         H         1.0       0.18181716536361092           0.10279554344368624          0.6492607491480751 1.0000   
         H         H         1.0       0.06078786832645511           0.1595980110504962 0.065661557041091  1.0000   
         H         H         1.0       0.05184618674276553           0.12606750405600642          0.6084263736860276 1.0000   
         H         H         1.0       0.05508497454383621           0.015775287627493473         0.5254244854116844 1.0000   
         H         H         1.0       0.07632415691868233           0.00032643713238522665       0.48421235916869054          1.0000   
         H         H         1.0       0.1414886720482904  0.10756655965855466           0.5164412425464793 1.0000   
         H         H         1.0       0.1151749809153857  0.11923303422365583           0.5523188998322085 1.0000   
         H         H         1.0       0.15264575929190527           0.9318195450928318 0.418223687604768  1.0000   
         H         H         1.0       0.14483651042972578           0.9996153866138554 0.4274245809361227 1.0000   
         H         H         1.0       0.13861449431628148           0.9705632696530311 0.5124996740410945 1.0000   
         H         H         1.0       0.15438274752741687           0.9037492826643997 0.505814080368082  1.0000   
         H         H         1.0       0.6410516183910805  0.06628572596736082           0.516874905829636  1.0000   
         H         H         1.0       0.7005412093296767  0.030410771723539343         0.5232693110028822 1.0000   
         H         H         1.0       0.6365165652751449  0.9523920654105527  0.4489146858571849 1.0000   
         H         H         1.0       0.18404183495632287           0.0676500950639618 0.4498194896643091 1.0000   
         H         H         1.0       0.13684856827230774           0.12080468733679406          0.465087487158846  1.0000   
         H         H         1.0       0.10008974620780853           0.15788031684936543          0.418112724050671  1.0000   
         H         H         1.0       0.04759823861776913           0.0513436275966177 0.37572713705588945          1.0000   
         H         H         1.0       0.0804944936338865  0.015095920196077639         0.4217978483545345 1.0000   
         C         C         1.0       0.6735460211848349  0.12351960513739257           0.2289293286732359 1.0000   
         C         C         1.0       0.6505187276387678  0.09105005163801816           0.21982475841415253          1.0000   
         C         C         1.0       0.6629786707367011  0.05380449169372592           0.22881370725781788          1.0000   
         C         C         1.0       0.6988743242866691  0.047268745617957464         0.2483192369482597 1.0000   
         C         C         1.0       0.7216276861485921  0.0816267199906271  0.25900843873787843          1.0000   
         C         C         1.0       0.7090211905392876  0.11912084798595313           0.24833815877944562          1.0000   
         H         H         1.0       0.6225013775202731  0.09444419676926996           0.20372332088362038          1.0000   
         H         H         1.0       0.6445492386997989  0.028947619709631223         0.2204504387900274 1.0000   
         H         H         1.0       0.7502629737191154  0.08011021737784607           0.2725035978706926 1.0000   
         H         H         1.0       0.7263799497208021  0.14413191623571242           0.2566416423790374 1.0000   
         C         C         1.0       0.7739154771725648  0.006810565905728261         0.25722278709405294          1.0000   
         C         C         1.0       0.75433720529576    0.9937746670810675  0.27463667499296823          1.0000   
         C         C         1.0       0.770227695211821   0.9684595929757907  0.29850820018144053          1.0000   
         C         C         1.0       0.806848635922963   0.9609903220424704  0.3074712922631909 1.0000   
         C         C         1.0       0.8254115713804419  0.9689614291592942  0.2892840329859492 1.0000   
         C         C         1.0       0.8086993084735695  0.9923433480505184  0.2649057817153036 1.0000   
         C         C         1.0       0.7110503603277372  0.005048987557729534         0.26231232143576577          1.0000   
         C         C         1.0       0.6967076292976951  0.9685773681439451  0.23588954257339892          1.0000   
         C         C         1.0       0.6900546071397301  0.929796424985734   0.24246177524736665          1.0000   
         C         C         1.0       0.6823551877843298  0.901432696550746   0.21944693229376044          1.0000   
         C         C         1.0       0.6771372255666489  0.9085558192454624  0.188267177541859  1.0000   
         C         C         1.0       0.6860660174956219  0.946797205653409   0.1830738705040021 1.0000   
         C         C         1.0       0.6957206659300735  0.9755650375315967  0.20614173084675   1.0000   
         C         C         1.0       0.7200001299876538  0.031353127522422586         0.3178024845982087 1.0000   
         C         C         1.0       0.7096735060893054  0.03550698473183456           0.3424868299940731 1.0000   
         C         C         1.0       0.6832455743719958  0.010450972879370912         0.34332446873448025          1.0000   
         C         C         1.0       0.6619587098167677  0.9881763868087091  0.3171355266675896 1.0000   
         C         C         1.0       0.668814868258553   0.9886111882752701  0.29117687416880805          1.0000   
         C         C         1.0       0.700549222151835   0.0069973218463059705        0.29138517562561944          1.0000   
         C         C         1.0       0.6790299163360203  0.0028165470317340624        0.37657445402418743          1.0000   
         C         C         1.0       0.7817605037026305  0.9409480896156249  0.4186481839288775 1.0000   
         C         C         1.0       0.7801226107753007  0.9810916487240723  0.4257555721238638 1.0000   
         C         C         1.0       0.7481269177217279  0.0005936937515735874        0.4146753584024579 1.0000   
         C         C         1.0       0.7163968756889618  0.9805055200383554  0.39404459339311304          1.0000   
         C         C         1.0       0.719081083764564   0.9406044835145658  0.3873121921230167 1.0000   
         C         C         1.0       0.7499823974943568  0.9205771722868409  0.40220538692827906          1.0000   
         C         C         1.0       0.643556381956206   0.9780777114912562  0.3737913603219697 1.0000   
         C         C         1.0       0.6092101600296587  0.9903872516191905  0.35435955422342924          1.0000   
         C         C         1.0       0.01624711295285386           0.06848481627081249          0.19796932412041318          1.0000   
         C         C         1.0       0.005142844477976416          0.02892791498040892          0.19609793154426144          1.0000   
         C         C         1.0       0.025636675036700085          7.645443371262495e-05        0.21365796060675593          1.0000   
         C         C         1.0       0.6450439192252434  0.9444014407046606  0.39142863663951394          1.0000   
         C         C         1.0       0.6834746110827356  0.04618479326543157           0.4248192385249823 1.0000   
         C         C         1.0       0.679403976733617   0.08270148572353664           0.4378044308443089 1.0000   
         C         C         1.0       0.6734899693352993  0.11735288492513063           0.42148823377575295          1.0000   
         C         C         1.0       0.6629506009859554  0.11567199872008316           0.38996193250434513          1.0000   
         C         C         1.0       0.6626376067448491  0.07762183589118932           0.3757577431271269 1.0000   
         C         C         1.0       0.6750998965482818  0.043344263109500236         0.39295631548353827          1.0000   
         H         H         1.0       0.7601495385169961  0.02305922753004941           0.23584488745895427          1.0000   
         H         H         1.0       0.7566783103451149  0.9551655196413544  0.31148617762372   1.0000   
         H         H         1.0       0.8189267013337526  0.9415643918837276  0.32390519742942614          1.0000   
         H         H         1.0       0.823105982547026   0.0026246312517697046        0.2510790392019344 1.0000   
         H         H         1.0       0.694845310349643   0.9201673505060004  0.26506853766922633          1.0000   
         H         H         1.0       0.6817216852632232  0.8705171961477689  0.22569861130855004          1.0000   
         H         H         1.0       0.683181098857761   0.9493228237998584  0.1595322423141696 1.0000   
         H         H         1.0       0.7008443285211227  0.00394320500184997           0.1976091496619651 1.0000   
         H         H         1.0       0.7425101672417947  0.05125389347691067           0.31876059384379185          1.0000   
         H         H         1.0       0.7276952837940793  0.056705363579343304         0.3602363198080833 1.0000   
         H         H         1.0       0.643821446222756   0.9654639542671977  0.31740908014751545          1.0000   
         H         H         1.0       0.6506511853450552  0.9725311495617908  0.2717386993785321 1.0000   
         H         H         1.0       0.8040958955436331  0.9944982408436447  0.4431189970771954 1.0000   
         H         H         1.0       0.7497947315378509  0.03264077958885636           0.42289249687005015          1.0000   
         H         H         1.0       0.6966297524456709  0.9229617550259558  0.3721020290150178 1.0000   
         H         H         1.0       0.7503013513620265  0.8889423663185789  0.3979868092451668 1.0000   
         H         H         1.0       0.6066339106485265  0.01969858605525321           0.34169678992355135          1.0000   
         H         H         1.0       0.9996130164248036  0.09134279974879189           0.18382332441297414          1.0000   
         H         H         1.0       0.01686992561040368           0.9685285046083696 0.21168716392293654          1.0000   
         H         H         1.0       0.6692143793217125  0.9325952265691468  0.4082261047622285 1.0000   
         H         H         1.0       0.6885305493389587  0.01959056201313425           0.43741374555655627          1.0000   
         H         H         1.0       0.6778357792108242  0.08493095125105055           0.45962062626746636          1.0000   
         H         H         1.0       0.6542390890700943  0.14224085167805045           0.376329926694888  1.0000   
         H         H         1.0       0.6508174932215314  0.0804363647134212  0.35087727622860043          1.0000   
         C         C         1.0       0.8073643120332537  0.5704908456842743  0.5296553450807906 1.0000   
         C         C         1.0       0.821702796088925   0.5431715318544753  0.5520603001015195 1.0000   
         C         C         1.0       0.8116755766675668  0.5035929714868335  0.5456488948521585 1.0000   
         C         C         1.0       0.7937849591959943  0.490480223425644   0.5143393135137453 1.0000   
         C         C         1.0       0.7835367580758855  0.519441462109246   0.49284795235292567          1.0000   
         C         C         1.0       0.7874055242075914  0.5590646946005852  0.5000919368260409 1.0000   
         H         H         1.0       0.8427115889484043  0.5537120919568422  0.574956174688802  1.0000   
         H         H         1.0       0.8234427649914463  0.4818387402841138  0.5622877275863658 1.0000   
         H         H         1.0       0.7686360476021485  0.5093744445880719  0.46951772571110956          1.0000   
         H         H         1.0       0.7800266972754764  0.5824076525072532  0.483305598808164  1.0000   
         C         C         1.0       0.7120850878359973  0.46564645617675615           0.4848432683874757 1.0000   
         C         C         1.0       0.7370891265585312  0.4416983008926163  0.47911466055453455          1.0000   
         C         C         1.0       0.724621171865315   0.40969297184772874           0.457679046563413  1.0000   
         C         C         1.0       0.6886025809614663  0.40117797740547323           0.4425182055036764 1.0000   
         C         C         1.0       0.6648536494273423  0.42697498028571435           0.4467660851695529 1.0000   
         C         C         1.0       0.6756778515865303  0.4611155297067488  0.4657635707815806 1.0000   
         C         C         1.0       0.7797359864103304  0.44527030102478143           0.5023339539631073 1.0000   
         C         C         1.0       0.778494307998359   0.41291036961955746           0.5259289018281799 1.0000   
         C         C         1.0       0.7841637891419     0.374100143761223   0.5203760861558273 1.0000   
         C         C         1.0       0.7836780421583617  0.3443242405574203  0.5387795303688716 1.0000   
         C         C         1.0       0.774552715849615   0.3521055627863371  0.5627459743411428 1.0000   
         C         C         1.0       0.7682921399183958  0.39061753919454967           0.5701459609171939 1.0000   
         C         C         1.0       0.7724223956391983  0.4208659795754848  0.5522030975884881 1.0000   
         C         C         1.0       0.7958216923220541  0.4428835518282589  0.4519063982306066 1.0000   
         C         C         1.0       0.8180424771508394  0.43425030317251245           0.4364288590937092 1.0000   
         C         C         1.0       0.8524205035643565  0.4181856608413281  0.4531847976554641 1.0000   
         C         C         1.0       0.8625350602940068  0.41272316125852154           0.4842536987595939 1.0000   
         C         C         1.0       0.838493475612669   0.4197197227654818  0.4979783492096815 1.0000   
         C         C         1.0       0.804563149285824   0.43552898754084635           0.48206410784338727          1.0000   
         C         C         1.0       0.8787668429115327  0.40640311952976793           0.43637868819920533          1.0000   
         C         C         1.0       0.840447278146332   0.2867859066879564  0.39975522338001845          1.0000   
         C         C         1.0       0.8234862509865285  0.3192805769188291  0.3850522229475602 1.0000   
         C         C         1.0       0.8367146914740472  0.35745983374905804           0.39507324762611895          1.0000   
         C         C         1.0       0.8650757883650274  0.3628510702946028  0.42399282931328086          1.0000   
         C         C         1.0       0.8768640205053165  0.33078000465495244           0.442133126980245  1.0000   
         C         C         1.0       0.8662198250546155  0.2929250687653207  0.4296781803153008 1.0000   
         C         C         1.0       0.9220948499613743  0.411267122457643   0.4576908523563366 1.0000   
         C         C         1.0       0.9357417509707522  0.44250965962765587           0.47900683569755587          1.0000   
         C         C         1.0       0.9724947771835664  0.44564264754468913           0.49493784783255973          1.0000   
         C         C         1.0       0.9958906224401883  0.4219162191443362  0.4883977064457105 1.0000   
         C         C         1.0       0.9828348894793216  0.39031164445985045           0.46749997486087724          1.0000   
         C         C         1.0       0.94649254890699    0.3860913194411822  0.451760122227146  1.0000   
         C         C         1.0       0.88583485741768    0.42930963027938523           0.38700854088065967          1.0000   
         C         C         1.0       0.8921465605974874  0.457560250817264   0.36871457652131584          1.0000   
         C         C         1.0       0.8903181504020113  0.4976573485240319  0.3753381890359585 1.0000   
         C         C         1.0       0.8838648143538056  0.5089404592921307  0.40063344968653336          1.0000   
         C         C         1.0       0.8772880397181615  0.4804142425094959  0.41846786346551496          1.0000   
         C         C         1.0       0.8765134877556487  0.439791429877956   0.4117343421618707 1.0000   
         H         H         1.0       0.7195963985699525  0.4915721684942553  0.5011337936121087 1.0000   
         H         H         1.0       0.7443930521519342  0.390751932555603   0.45666973421314394          1.0000   
         H         H         1.0       0.6786632108757433  0.3773734924436617  0.4257791384332335 1.0000   
         H         H         1.0       0.655419670799745   0.4817253324163111  0.4679730523627545 1.0000   
         H         H         1.0       0.7854348547954786  0.3637052615526941  0.4989058778011292 1.0000   
         H         H         1.0       0.7854178050792212  0.31126804699996613           0.5336039606219811 1.0000   
         H         H         1.0       0.7648529699570372  0.3989485909101081  0.5900414411267303 1.0000   
         H         H         1.0       0.7691384664681328  0.45168945755202305           0.5558983281748606 1.0000   
         H         H         1.0       0.7706932905939277  0.4581956714753164  0.4407159739015179 1.0000   
         H         H         1.0       0.8120876863938462  0.44284191055294553           0.4121786283232535 1.0000   
         H         H         1.0       0.8881513039861907  0.40300159162948235           0.4992929271084732 1.0000   
         H         H         1.0       0.8463913125802225  0.4163245816368615  0.5232021822457801 1.0000   
         H         H         1.0       0.7995801744637027  0.3149918876485047  0.3641832209606906 1.0000   
         H         H         1.0       0.8226448875035515  0.38124602006817554           0.3784590829658641 1.0000   
         H         H         1.0       0.89647067086694    0.33336609548180335           0.4654004243065071 1.0000   
         H         H         1.0       0.8808407692316748  0.2683603647774073  0.4408714401497201 1.0000   
         H         H         1.0       0.9195887818471258  0.4601345702159959  0.48913286217839225          1.0000   
         H         H         1.0       0.9807919748234175  0.4675384018623702  0.5133268478387262 1.0000   
         H         H         1.0       0.00019594912309117696        0.37457652244889816          0.4602191634172868 1.0000   
         H         H         1.0       0.935738843153534   0.36394872185897076           0.4348345867895229 1.0000   
         H         H         1.0       0.896576972224142   0.4001255752544832  0.3879809839818794 1.0000   
         H         H         1.0       0.9030306102841638  0.4470904698185331  0.35320264813303986          1.0000   
         H         H         1.0       0.8851604353325726  0.5387158656194329  0.40790429044211957          1.0000   
         H         H         1.0       0.8756843406855853  0.4882065252484391  0.4394790186440476 1.0000   
         C         C         1.0       0.014597693893719343          0.6621845189292422 0.18656532039715373          1.0000   
         C         C         1.0       0.9965895343637206  0.6421417799279964  0.20144149009890697          1.0000   
         C         C         1.0       0.9936612552438424  0.602483151632503   0.1978547697457923 1.0000   
         C         C         1.0       0.010269872303735106          0.5798978102126858 0.18218793300522193          1.0000   
         C         C         1.0       0.029630512639636564          0.601468373297084  0.16971030121511854          1.0000   
         C         C         1.0       0.030999325564504465          0.6425436993527663 0.17040076688775868          1.0000   
         H         H         1.0       0.9825903436585884  0.6573697429193107  0.21281152745434545          1.0000   
         H         H         1.0       0.97767813833854    0.5869175427510311  0.20839297411140856          1.0000   
         H         H         1.0       0.04216169138872505           0.5870979397554967 0.15625601710175568          1.0000   
         H         H         1.0       0.04806005466460861           0.658956767056115  0.16137424945042114          1.0000   
         C         C         1.0       0.036793190150056665          0.4729464956970801 0.16494086808676567          1.0000   
         C         C         1.0       0.04051352878498937           0.5086833108285077 0.18145246815629384          1.0000   
         C         C         1.0       0.07527356468186985           0.5197522168905236 0.20417093416131388          1.0000   
         C         C         1.0       0.10362485573406799           0.4930727876143654 0.21192743928285437          1.0000   
         C         C         1.0       0.09696949997947435           0.4549055709598425 0.19702365944163658          1.0000   
         C         C         1.0       0.06430910299139492           0.4453307327924823 0.1741603953725703 1.0000   
         C         C         1.0       0.004395544258617212          0.5316223345353644 0.17972810245068735          1.0000   
         C         C         1.0       0.9706230360381797  0.5328554892176648  0.14899819185456398          1.0000   
         C         C         1.0       0.9352442215134511  0.5342956809593745  0.14870834717277168          1.0000   
         C         C         1.0       0.9054437832564403  0.5308401504571436  0.12069662912244515          1.0000   
         C         C         1.0       0.9075464947026347  0.5353813215317341  0.0927285859186977 1.0000   
         C         C         1.0       0.9417247223168788  0.5391330169075147  0.09393662965970016          1.0000   
         C         C         1.0       0.97227449281287    0.5366166012162132  0.11988049089925168          1.0000   
         C         C         1.0       0.015520079384733654          0.5218575481815416 0.23681528868256504          1.0000   
         C         C         1.0       0.0057384952418646495         0.5033841992679609 0.25910207985823425          1.0000   
         C         C         1.0       0.9815967581530726  0.4704458105764601  0.2511797959856029 1.0000   
         C         C         1.0       0.9676192104341237  0.45845080968089275           0.21985192795908437          1.0000   
         C         C         1.0       0.9771753724309069  0.47526568674119074           0.19911387392375063          1.0000   
         C         C         1.0       0.9992085140397629  0.5086209555423933  0.2058958221327395 1.0000   
         C         C         1.0       0.9674153548555963  0.448062566692719   0.2728746016120951 1.0000   
         C         C         1.0       0.0446855141098792  0.3516212259864008  0.280609699992207  1.0000   
         C         C         1.0       0.05263885066915042           0.3848155024453134 0.2986849923753925 1.0000   
         C         C         1.0       0.026170349139320814          0.41030981962696644          0.2994903730371201 1.0000   
         C         C         1.0       0.9913070701159423  0.4075109657300232  0.27777867479890855          1.0000   
         C         C         1.0       0.9833419516987962  0.3728210894371008  0.2596684904102311 1.0000   
         C         C         1.0       0.008940736275831807          0.3429468505965671 0.26359778019518215          1.0000   
         C         C         1.0       0.9242446107426423  0.43877237991346996           0.2589667824356275 1.0000   
         C         C         1.0       0.9003640684576789  0.46307163443868254           0.23739578914936502          1.0000   
         C         C         1.0       0.8639787001100024  0.45756114975742024           0.22747465682768597          1.0000   
         C         C         1.0       0.8506937902920256  0.42981118150774744           0.23953876672384783          1.0000   
         C         C         1.0       0.8725915977197019  0.40459095569363457           0.26207860172562336          1.0000   
         C         C         1.0       0.9095785553295418  0.4081769618028486  0.27036155208979784          1.0000   
         C         C         1.0       0.9759354712837411  0.45721631928321593           0.329663660113494  1.0000   
         C         C         1.0       0.9704957851276962  0.4768509917469555  0.3525648016056388 1.0000   
         C         C         1.0       0.9577965567790429  0.5155734330210408  0.34902940563575185          1.0000   
         C         C         1.0       0.9505544379116114  0.5343196623249598  0.32195678443086095          1.0000   
         C         C         1.0       0.9582903723047576  0.5147600839203306  0.29861434005059406          1.0000   
         C         C         1.0       0.9700426077704001  0.4753438501932602  0.30233437354543585          1.0000   
         H         H         1.0       0.009230612498633661          0.4629359880527914 0.15152832095355392          1.0000   
         H         H         1.0       0.07805174968519357           0.5471209559854721 0.2157680839273822 1.0000   
         H         H         1.0       0.12762677260299649           0.50087369976295   0.23115027342727265          1.0000   
         H         H         1.0       0.06040058591150754           0.41322403467985597          0.16630665864982   1.0000   
         H         H         1.0       0.9285762673847799  0.5364786946720396  0.16988842891766898          1.0000   
         H         H         1.0       0.8786591386965867  0.5331292747062287  0.12015438513933319          1.0000   
         H         H         1.0       0.9462790215083643  0.5435572065491583  0.07274395135801592          1.0000   
         H         H         1.0       0.9989344802199532  0.5337284848541214  0.11746988275621395          1.0000   
         H         H         1.0       0.036106324652669386          0.5440041923094026 0.24239566216672204          1.0000   
         H         H         1.0       0.01838919661021632           0.5159181509238594 0.282347269822751  1.0000   
         H         H         1.0       0.9466762294089905  0.4344185269791798  0.2095539119042899 1.0000   
         H         H         1.0       0.9642137637595258  0.46480757152728225           0.17615184411319942          1.0000   
         H         H         1.0       0.08068014464859963           0.3909216224675947 0.3144548972480353 1.0000   
         H         H         1.0       0.03678975439173171           0.4374538531656608 0.3153896362482174 1.0000   
         H         H         1.0       0.957060012717618   0.3675993764452991  0.2417873495911506 1.0000   
         H         H         1.0       0.0016614439566153827         0.315055911177438  0.250086867041249  1.0000   
         H         H         1.0       0.9050355239403647  0.4883119977551964  0.22470646991255608          1.0000   
         H         H         1.0       0.84624204319197    0.4763103923125987  0.2095098049613435 1.0000   
         H         H         1.0       0.859673242248874   0.38302072562787665           0.27215783999548926          1.0000   
         H         H         1.0       0.9269441201756058  0.38814945398941336           0.28858110986762725          1.0000   
         H         H         1.0       0.9801894806594912  0.4260594045321851  0.33132099475939275          1.0000   
         H         H         1.0       0.9706134153169085  0.4603258745827241  0.37270767515519027          1.0000   
         H         H         1.0       0.9411414263283582  0.5631951013276075  0.3194087868360144 1.0000   
         H         H         1.0       0.952250120032782   0.5322790914851606  0.27789430982278335          1.0000   
         C         C         1.0       0.5866333687663262  0.3520784302117277  0.4296369910884025 1.0000   
         C         C         1.0       0.5520413946970043  0.36130266191173493           0.4149211906191688 1.0000   
         C         C         1.0       0.5271489052797106  0.33022674029748667           0.39882539550517465          1.0000   
         C         C         1.0       0.5366301411459995  0.29109499102365866           0.3983612077566319 1.0000   
         C         C         1.0       0.5722189223975119  0.2823456126623     0.42050817883974323          1.0000   
         C         C         1.0       0.5969868953150206  0.3118810725554504  0.435245572143651  1.0000   
         H         H         1.0       0.5430216952859878  0.391184633509191   0.4153041487386189 1.0000   
         H         H         1.0       0.1438224998718225  0.34048394053372    0.4197685566604654 1.0000   
         H         H         1.0       0.586151461533074   0.25427143138425723           0.42220137743210345          1.0000   
         H         H         1.0       0.6239517569268762  0.30356359344715667           0.4473568976925549 1.0000   
         C         C         1.0       0.5556440253450129  0.226503045955591   0.3635900684364931 1.0000   
         C         C         1.0       0.18148470222699808           0.2239630738870781 0.40937180864815553          1.0000   
         C         C         1.0       0.16578854149414135           0.1859338203955179 0.40045060334564053          1.0000   
         C         C         1.0       0.1834727161827605  0.15567939458596397           0.3933205661299559 1.0000   
         C         C         1.0       0.5394749482850711  0.1709371136127407  0.32725232822389155          1.0000   
         C         C         1.0       0.5654748127600483  0.19856344731254436           0.34622829159355195          1.0000   
         C         C         1.0       0.16130112499433924           0.26163263635536965          0.41608287121271503          1.0000   
         C         C         1.0       0.13792444129003978           0.2722596306106339 0.38193827897632   1.0000   
         C         C         1.0       0.10735296413575579           0.24905360183118933          0.3628460894576481 1.0000   
         C         C         1.0       0.09045628838607378           0.254610570795779  0.33323494768062006          1.0000   
         C         C         1.0       0.10233847866976342           0.28451470695709546          0.3195933069668721 1.0000   
         C         C         1.0       0.13445063210073438           0.30472465724583736          0.3358994709126759 1.0000   
         C         C         1.0       0.1508806583824871  0.2995322950586562  0.36713487613824686          1.0000   
         C         C         1.0       0.14532185352574856           0.21963761093027268          0.4539946035680427 1.0000   
         C         C         1.0       0.12516259944528207           0.21325423481389427          0.4719157845333474 1.0000   
         C         C         1.0       0.0975852984152521  0.23897405286124757           0.4704039835540248 1.0000   
         C         C         1.0       0.08479623096200006           0.2645480220398815 0.44643288329520847          1.0000   
         C         C         1.0       0.10567599914853743           0.27273248887520424          0.43040210171608223          1.0000   
         C         C         1.0       0.13712194310851378           0.25192890368008725          0.43460755600328316          1.0000   
         C         C         1.0       0.08297261819806412           0.2423010402824236 0.49727357290886914          1.0000   
         C         C         1.0       0.9874769771020173  0.16546922214966617           0.44930897159860195          1.0000   
         C         C         1.0       0.0210101582086053  0.14762082217050085           0.46618543063727375          1.0000   
         C         C         1.0       0.05104349225630145           0.1726550455155455 0.48008866487732915          1.0000   
         C         C         1.0       0.04891257551365791           0.21511302992835135          0.47870989605601516          1.0000   
         C         C         1.0       0.014619203327764785          0.22896923986484197          0.45949852717359635          1.0000   
         C         C         1.0       0.9852197900715375  0.206560526600383   0.44635843438426576          1.0000   
         C         C         1.0       0.07319586849548476           0.28648548834981874          0.5065515315669633 1.0000   
         C         C         1.0       0.09471125253966917           0.3190400802010456 0.5074896508952029 1.0000   
         C         C         1.0       0.09056473044461222           0.3567105851876513 0.5184133613772899 1.0000   
         C         C         1.0       0.06251576936175862           0.36187735716329517          0.52798526064409   1.0000   
         C         C         1.0       0.04335347429707892           0.3297990576426383 0.5310305077411046 1.0000   
         C         C         1.0       0.050012268917628555          0.29168780232138647          0.5211569001108493 1.0000   
         C         C         1.0       0.09600143028875774           0.2110260764430279 0.5492102452246918 1.0000   
         C         C         1.0       0.11603495969228628           0.20743314448772524          0.5799175780429843 1.0000   
         C         C         1.0       0.15195860907474557           0.22007630397427386          0.5930815550048953 1.0000   
         C         C         1.0       0.6237042093174612  0.22124465056374526           0.5298442633605082 1.0000   
         C         C         1.0       0.14475897782965075           0.24033347807467453          0.5423827335474232 1.0000   
         C         C         1.0       0.11051136922539917           0.22735620203926615          0.5300719479724642 1.0000   
         H         H         1.0       0.5716878715645995  0.24998619810622488           0.3714304699425327 1.0000   
         H         H         1.0       0.14051776132093186           0.18021424494606791          0.39949336361736026          1.0000   
         H         H         1.0       0.16814712555448352           0.12706758055987072          0.38504366167750403          1.0000   
         H         H         1.0       0.5898369850511155  0.20296618499212885           0.3429061020575637 1.0000   
         H         H         1.0       0.09729003174291173           0.22452850394691612          0.3718605825618137 1.0000   
         H         H         1.0       0.06806729842793846           0.23304697187949744          0.319580468209428  1.0000   
         H         H         1.0       0.14427780909703047           0.3289133778234813 0.3252305779674869 1.0000   
         H         H         1.0       0.5053003966085949  0.29366968957357265           0.3337269222821473 1.0000   
         H         H         1.0       0.5280538882851634  0.19074241469810396           0.422661433793037  1.0000   
         H         H         1.0       0.13543944235608674           0.18910898832497133          0.48738116806115195          1.0000   
         H         H         1.0       0.06144805779252094           0.28352608834975335          0.44370399254237786          1.0000   
         H         H         1.0       0.0965350713293529  0.29800351105636524           0.41504467214643426          1.0000   
         H         H         1.0       0.02305294533396607           0.1165840327663512 0.47090827283836983          1.0000   
         H         H         1.0       0.0740706059097429  0.15730421306762682           0.4951096011513441 1.0000   
         H         H         1.0       0.012379454615077057          0.2618277621064082 0.45782597788863044          1.0000   
         H         H         1.0       0.960097902253441   0.22023976677984267           0.43685424233207165          1.0000   
         H         H         1.0       0.11506742583647367           0.31884275580230403          0.49960011245486297          1.0000   
         H         H         1.0       0.11005315719796571           0.3802597902209078 0.5210526436335426 1.0000   
         H         H         1.0       0.024190381443875753          0.3347309693926697 0.5408299715573069 1.0000   
         H         H         1.0       0.03965921544070938           0.26651466694697945          0.5285781701068877 1.0000   
         H         H         1.0       0.0674579454683879  0.20518108434527385           0.5397333928541275 1.0000   
         H         H         1.0       0.9951248758992305  0.22453506068463186           0.08195625219616876          1.0000   
         H         H         1.0       0.6386602508960803  0.2163569245303675  0.5158602496410059 1.0000   
         H         H         1.0       0.5854399890415442  0.24913166715093335           0.4915463123298687 1.0000   
         C         C         1.0       0.13889372393650223           0.3615446575197509 0.24741004435532454          1.0000   
         C         C         1.0       0.7034899643614129  0.4016967404201361  0.36274604617190753          1.0000   
         C         C         1.0       0.7001086858248112  0.3669105243680146  0.3454879378425148 1.0000   
         C         C         1.0       0.6651968687809945  0.3516984297810816  0.3298746742250901 1.0000   
         C         C         1.0       0.6361230913582888  0.3737711371808937  0.3281524242378927 1.0000   
         C         C         1.0       0.13596556622366784           0.32016921335098536          0.23938206972660045          1.0000   
         H         H         1.0       0.7317266379486316  0.41072358233887457           0.3773425367464502 1.0000   
         H         H         1.0       0.721279283356428   0.34867354757317676           0.34774202282539024          1.0000   
         H         H         1.0       0.1576297644950977  0.264460770777986   0.24568177318437773          1.0000   
         H         H         1.0       0.11112187017283381           0.31165591127057934          0.2198488334482729 1.0000   
         C         C         1.0       0.5934651718691033  0.28453011160271463           0.3096713658971611 1.0000   
         C         C         1.0       0.6245750409548282  0.2752078016838728  0.3035236212945191 1.0000   
         C         C         1.0       0.6217733632707348  0.2429372497734038  0.282835411494736  1.0000   
         C         C         1.0       0.5927671254794885  0.2154365410907663  0.2728625130180924 1.0000   
         C         C         1.0       0.5637631273655955  0.22502676790907447           0.2807500560501453 1.0000   
         C         C         1.0       0.5630533789923795  0.2610165152073144  0.2969003842089833 1.0000   
         C         C         1.0       0.6592062642742101  0.3072800458720151  0.3107119694205278 1.0000   
         C         C         1.0       0.6919381336602208  0.2785419022219788  0.3312562381936761 1.0000   
         C         C         1.0       0.7140969574298904  0.25938978224660714           0.3195984820986569 1.0000   
         C         C         1.0       0.7466323381587904  0.24453906679388446           0.3385640105032915 1.0000   
         C         C         1.0       0.757165342926971   0.24821873035607317           0.37059403011066294          1.0000   
         C         C         1.0       0.7334979914060694  0.26335591312381684           0.3826139049144817 1.0000   
         C         C         1.0       0.6997732865639944  0.27642416408728515           0.3627553424112156 1.0000   
         C         C         1.0       0.6266890514172059  0.32966424061426985           0.253857156814169  1.0000   
         C         C         1.0       0.6246298897929271  0.3444294099502229  0.22741675893711824          1.0000   
         C         C         1.0       0.6553307191472866  0.3495343032900204  0.22225978338494803          1.0000   
         C         C         1.0       0.6880488173282504  0.349887739074682   0.24744702210257888          1.0000   
         C         C         1.0       0.6903632596690747  0.3370417179609302  0.2750806723022245 1.0000   
         C         C         1.0       0.6595177878573962  0.3227300100947391  0.2779833219046583 1.0000   
         C         C         1.0       0.654287161300574   0.3544393520440167  0.1888217588425557 1.0000   
         C         C         1.0       0.6637260882198374  0.22286808463407737           0.1836440389997011 1.0000   
         C         C         1.0       0.6308944004842506  0.2419271106161769  0.16458406741640194          1.0000   
         C         C         1.0       0.6285978607220194  0.28335257089508703           0.16433100829900774          1.0000   
         C         C         1.0       0.6583757129165242  0.30762988364675287           0.1799824991180148 1.0000   
         C         C         1.0       0.690306048434813   0.28811955324788713           0.19530191930850252          1.0000   
         C         C         1.0       0.6936857246964706  0.2463554338104484  0.19665359416346978          1.0000   
         C         C         1.0       0.6851089066991592  0.38234017876947407           0.18630993988690603          1.0000   
         C         C         1.0       0.6941204144778974  0.4182139360623874  0.20345893559442235          1.0000   
         C         C         1.0       0.7247473254852282  0.4397805828982384  0.20670944566330215          1.0000   
         C         C         1.0       0.7463320323501295  0.4252586447272829  0.19246334597579795          1.0000   
         C         C         1.0       0.736086126194641   0.3925640135113952  0.17208917544402072          1.0000   
         C         C         1.0       0.7055595541170058  0.3718317499398529  0.16977967493101698          1.0000   
         C         C         1.0       0.6118040654264008  0.37163187792330016           0.1338937071032747 1.0000   
         C         C         1.0       0.5850095914599828  0.3925609712237127  0.1115345251947173 1.0000   
         C         C         1.0       0.5638104055733911  0.4184271309406152  0.11975699673183993          1.0000   
         C         C         1.0       0.5710568358660543  0.4242518534401002  0.15081126737239878          1.0000   
         C         C         1.0       0.5994446269641304  0.40305232820317666           0.1733392804792313 1.0000   
         C         C         1.0       0.6195994085384655  0.37529679194745513           0.1645499592473323 1.0000   
         H         H         1.0       0.5962538002477519  0.3094313597188204  0.32528059663489484          1.0000   
         H         H         1.0       0.6436758525283068  0.23685266961605433           0.2758836591136358 1.0000   
         H         H         1.0       0.5928567420003079  0.1884406847255201  0.25926353357440146          1.0000   
         H         H         1.0       0.16110694715230367           0.18178372123486908          0.3191744888258808 1.0000   
         H         H         1.0       0.7086498973941099  0.259664612204767   0.29498409218142957          1.0000   
         H         H         1.0       0.7597625056658227  0.22450006963958627           0.32630070238927206          1.0000   
         H         H         1.0       0.740875901096002   0.2635089630413062  0.40687272904704375          1.0000   
         H         H         1.0       0.6813270300301291  0.28762264003353094           0.3713503674550484 1.0000   
         H         H         1.0       0.6034953431175043  0.3213976130419967  0.2556483562742159 1.0000   
         H         H         1.0       0.5978368648122578  0.34352957184114385           0.2081613420250666 1.0000   
         H         H         1.0       0.713461238990392   0.35904370602620583           0.24466993004321663          1.0000   
         H         H         1.0       0.7149739768014316  0.34010052408354396           0.29425106806612494          1.0000   
         H         H         1.0       0.6085489793620726  0.2229025497853638  0.15148475931651545          1.0000   
         H         H         1.0       0.6022685577766208  0.29751151298735057           0.1520229173741339 1.0000   
         H         H         1.0       0.7140256680887529  0.30584741498724594           0.20795684170212933          1.0000   
         H         H         1.0       0.717895801357359   0.23069187498515192           0.20643247756616945          1.0000   
         H         H         1.0       0.6771666934488654  0.429402434669934   0.21462556595998747          1.0000   
         H         H         1.0       0.7335460286458629  0.4658686453298825  0.2219722708935323 1.0000   
         H         H         1.0       0.7512055949467692  0.38637168543532957           0.1576566773441489 1.0000   
         H         H         1.0       0.6993384796856486  0.3438948210997794  0.15617668033801885          1.0000   
         H         H         1.0       0.6315127085105865  0.357140309301549   0.12640782365101488          1.0000   
         H         H         1.0       0.5855282473835375  0.39491996695948334           0.08958733626708826          1.0000   
         H         H         1.0       0.5566072414911437  0.4469303228982016  0.1570528360829256 1.0000   
         H         H         1.0       0.6003513509381988  0.4086858329204615  0.19589278873839008          1.0000   
         C         C         1.0       0.5019324092671018  0.4097123351193233  0.07228255684945606          1.0000   
         C         C         1.0       0.5325403189507608  0.43856897584110804           0.0946392675477612 1.0000   
         H         H         1.0       0.4776259240479717  0.42963210740915686           0.060028846946441616         1.0000   
         H         H         1.0       0.4897373970303981  0.3899026843710746  0.08277945614325422          1.0000   
         H         H         1.0       0.5457488328844232  0.45395542784242393           0.08217354069368343          1.0000   
         H         H         1.0       0.5209036913828113  0.46100394797589855           0.10512767372888687          1.0000   
         C         C         1.0       0.5341679647648714  0.1959540030344501  0.273746086919598  1.0000   
         C         C         1.0       0.23108677449019366           0.13026641908472017          0.37631452388616937          1.0000   
         H         H         1.0       0.5092505386564771  0.21087351701185966           0.27331894688897534          1.0000   
         H         H         1.0       0.5235776601358181  0.18434196052982071           0.25020697726064456          1.0000   
         H         H         1.0       0.22833983634898702           0.10315371228834458          0.3870835437616025 1.0000   
         H         H         1.0       0.5652601491492458  0.1462083902246009  0.29762987587226125          1.0000   
         C         C         1.0       0.8106968224137938  0.4204470183209071  0.22872331306571791          1.0000   
         C         C         1.0       0.7839422060338253  0.44560743178839135           0.20234073238142192          1.0000   
         H         H         1.0       0.8078913940817696  0.3886729738444279  0.22305537322113897          1.0000   
         H         H         1.0       0.8015512385509439  0.4249589481673643  0.24661920815873478          1.0000   
         H         H         1.0       0.7859580357835745  0.4781162281869878  0.20876365149660955          1.0000   
         H         H         1.0       0.7908423587255011  0.44276104074425676           0.1816212648044729 1.0000   
         C         C         1.0       0.11245172097540523           0.39307945952258166          0.23106161509298428          1.0000   
         C         C         1.0       0.12330603214860592           0.4195910033991068 0.2085082845649382 1.0000   
         H         H         1.0       0.10747310555133338           0.412775957057587  0.2487356150982373 1.0000   
         H         H         1.0       0.08636979213572893           0.3769396228257073 0.21629182409945538          1.0000   
         H         H         1.0       0.11837406338907797           0.3988484753892802 0.18991694948785223          1.0000   
         H         H         1.0       0.15174284683343342           0.4275799486270055 0.21564004681996504          1.0000   
         C         C         1.0       0.07324706655555446           0.3312405477595586 0.272594231247288  1.0000   
         C         C         1.0       0.08408303755257895           0.2878003749829232 0.2857429980273498 1.0000   
         H         H         1.0       0.06811420879473551           0.33152554672785756          0.24676203441552583          1.0000   
         H         H         1.0       0.09822679327158768           0.3493565035030364 0.28168189022128104          1.0000   
         H         H         1.0       0.10086045097504392           0.2725251348684642 0.27496648094324616          1.0000   
         H         H         1.0       0.05686022048845185           0.27302656460314384          0.27739665260128954          1.0000   
         C         C         1.0       0.6260733992553381  0.4157774764892863  0.4306492334265873 1.0000   
         C         C         1.0       0.614829669791239   0.383501826503175   0.44888180445712245          1.0000   
         H         H         1.0       0.615380160568241   0.4029314843678944  0.4065512044507055 1.0000   
         H         H         1.0       0.6083417063197402  0.44081085994556723           0.4261911488468729 1.0000   
         H         H         1.0       0.6044540624322516  0.39722635838553144           0.4651882208773432 1.0000   
         H         H         1.0       0.6397817206208475  0.3661294823484812  0.46327561171799053          1.0000   
         C         C         1.0       0.0350585610679961  0.43212699831087614           0.5076914568629903 1.0000   
         C         C         1.0       0.05317178305089332           0.40483280470217803          0.5362041662717643 1.0000   
         H         H         1.0       0.049537543364387426          0.429896159940441  0.4923266619308559 1.0000   
         H         H         1.0       0.040786243543244005          0.46118653966957945          0.5190002589908843 1.0000   
         H         H         1.0       0.07580631416861094           0.41925727734152635          0.5531428117831271 1.0000   
         H         H         1.0       0.03406551252556622           0.4034930242264293 0.5482864205194107 1.0000   
         C         C         1.0       0.7929586049927827  0.2289642196126767  0.3908432834198308 1.0000   
         C         C         1.0       0.8279869645962592  0.2439742414188247  0.3862313714222983 1.0000   
         H         H         1.0       0.7977474296214628  0.23165064178621006           0.4152310636625111 1.0000   
         H         H         1.0       0.7874928908366884  0.19654557822910595           0.3859690238671262 1.0000   
         H         H         1.0       0.8220290459723073  0.24323823440882836           0.36101165331170565          1.0000   
         H         H         1.0       0.8488929469628055  0.22207138332581675           0.3935078176757899 1.0000   
         C         C         1.0       0.8424409845501616  0.5581596203523644  0.06207712885900784          1.0000   
         C         C         1.0       0.8760348610577049  0.5367715079551129  0.06230277736875878          1.0000   
         H         H         1.0       0.8309364546409147  0.5441823524894202  0.07615037689561133          1.0000   
         H         H         1.0       0.8515353496095437  0.5842953466084799  0.07794783302954111          1.0000   
         H         H         1.0       0.8217199895956527  0.2879804666645023  0.5868057804311891 1.0000   
         H         H         1.0       0.8111408027563293  0.27308657406107995           0.616109964669778  1.0000   
         C         C         1.0       0.9047783229501913  0.5331757668097971  0.36349994279690434          1.0000   
         C         C         1.0       0.9458299944048558  0.5325411401949344  0.37431391682292514          1.0000   
         H         H         1.0       0.8905290129272513  0.5315823907459301  0.337725666357716  1.0000   
         H         H         1.0       0.8976120273305317  0.5632363572985362  0.3704995174310114 1.0000   
         H         H         1.0       0.9563499896532437  0.5139518942892692  0.3950716106077269 1.0000   
         H         H         1.0       0.9559125300453369  0.5641967711144216  0.3815276664067586 1.0000   
         C         C         1.0       0.6567382420319884  0.16381789504948796           0.2149693415799164 1.0000   
         C         C         1.0       0.6624472346942208  0.17747572365490008           0.18657659869622092          1.0000   
         H         H         1.0       0.629573194878727   0.16571917660881413           0.21197931195557024          1.0000   
         H         H         1.0       0.6714481848371826  0.18576148740903706           0.23671106062158326          1.0000   
         H         H         1.0       0.6409999375543302  0.15913850378067357           0.1685849352957462 1.0000   
         H         H         1.0       0.6873875593778807  0.16900637669614424           0.18486087147388153          1.0000   
         C         C         1.0       0.9419146417775919  0.14060304406031995           0.4720358915114188 1.0000   
         C         C         1.0       0.9528289386334305  0.14163750320387888           0.4444913043498735 1.0000   
         H         H         1.0       0.9174096477167651  0.12398898272919831           0.46543987992860114          1.0000   
         H         H         1.0       0.9375468137727577  0.17228948256096804           0.47871386182989867          1.0000   
         H         H         1.0       0.9310148357545589  0.15611154493246177           0.4270020838203456 1.0000   
         H         H         1.0       0.9535073625695615  0.1108391306661225  0.43706878203801874          1.0000   
         C         C         1.0       0.11950754814611275           0.18652250333711873          0.053216041363076894         1.0000   
         C         C         1.0       0.6682482229095664  0.8766564845967707  0.16250065254264176          1.0000   
         H         H         1.0       0.11451162048705266           0.20215767664073447          0.03145629070090483          1.0000   
         H         H         1.0       0.10896436603707005           0.2102157963278628 0.06382759538463612          1.0000   
         H         H         1.0       0.6756264132686417  0.8455614065835146  0.171305908025653  1.0000   
         H         H         1.0       0.687418260218466   0.8835322348720026  0.15113043544901947          1.0000   
         C         C         1.0       0.6727954771995887  0.15732739593547285           0.43723417482646765          1.0000   
         C         C         1.0       0.6375931573973274  0.18082189440377205           0.42809323957900763          1.0000   
         H         H         1.0       0.6821269913254192  0.1540521759284459  0.4620601988867288 1.0000   
         H         H         1.0       0.6969350229245765  0.17586039691030586           0.43774059665971166          1.0000   
         H         H         1.0       0.6267297673163019  0.18687828290809172           0.4036707470368601 1.0000   
         H         H         1.0       0.6415321373371141  0.20720578246288968           0.44298840019986524          1.0000   
         C         C         1.0       0.981265850662207   0.7258958990743675  0.16845808568525403          1.0000   
         C         C         1.0       0.015738341896097463          0.7075582563303235 0.19238748001557943          1.0000   
         H         H         1.0       0.9587957119027066  0.7025195747454467  0.15475658668067108          1.0000   
         H         H         1.0       0.9861731841956909  0.7434088874864789  0.15047466359843203          1.0000   
         H         H         1.0       0.019310531845609713          0.7149062018116213 0.21622036250565588          1.0000   
         H         H         1.0       0.040048327014677865          0.7214649127596832 0.19373677252071847          1.0000   
         C         C         1.0       0.8911971710984498  0.9651226022673558  0.3304952650234098 1.0000   
         C         C         1.0       0.861558236488738   0.9515592966882738  0.2990399802600808 1.0000   
         H         H         1.0       0.9050685346608467  0.990678820873854   0.32525543924600525          1.0000   
         H         H         1.0       0.8798297902940312  0.9735106537725658  0.3472059292989471 1.0000   
         H         H         1.0       0.8557340395401662  0.9182666343547032  0.29432208606714727          1.0000   
         H         H         1.0       0.8745771231220135  0.9595449979022233  0.28293793540600526          1.0000   
         C         C         1.0       0.9689592733564187  0.0153694209466948  0.17231916506696637          1.0000   
         C         C         1.0       0.9368044494732924  0.008014809565644043         0.18225213686105377          1.0000   
         H         H         1.0       0.9755373696369268  0.9854289932412281  0.16187510100024025          1.0000   
         H         H         1.0       0.961321227560837   0.03831228626937078           0.1527128724660756 1.0000   
         H         H         1.0       0.9120392407209408  0.010977659950123897         0.16017067988855052          1.0000   
         H         H         1.0       0.9345842057495523  0.03151884271671812           0.1978720957586475 1.0000   
         C         C         1.0       0.13863361890754367           0.8369065155165805 0.45615195623810145          1.0000   
         C         C         1.0       0.1665268287398165  0.8705801223100128  0.4570374309946908 1.0000   
         H         H         1.0       0.1392217245000853  0.8325628013326785  0.47976633034399896          1.0000   
         H         H         1.0       0.1459369927334757  0.8053986944970097  0.45044743563617695          1.0000   
         H         H         1.0       0.1925547872790212  0.8666456735202787  0.47615772719018606          1.0000   
         H         H         1.0       0.17247919464100736           0.8697744372436641 0.43587658968781184          1.0000   
         C         C         1.0       0.8146445623982079  0.6146953659696679  0.5354734366360211 1.0000   
         C         C         1.0       0.782163416341841   0.6362631374961208  0.5375166089065605 1.0000   
         H         H         1.0       0.8410753251910926  0.6187270073173805  0.5565962494632395 1.0000   
         H         H         1.0       0.8203877394835611  0.6271348792111777  0.5163607481128935 1.0000   
         H         H         1.0       0.7773391143209761  0.6182024565013212  0.554787844981468  1.0000   
         H         H         1.0       0.7589456133838954  0.626474982876299   0.5162104364667659 1.0000   
         C         C         1.0       0.7030312637464113  0.9610564683254148  0.4970249964833407 1.0000   
         C         C         1.0       0.7026770242222697  0.9401889813884846  0.5265635638480416 1.0000   
         H         H         1.0       0.6977978768608561  0.9347186438581693  0.4794982983167446 1.0000   
         H         H         1.0       0.7278049791810555  0.9762946428698991  0.4988207150326455 1.0000   
         H         H         1.0       0.6742455204901466  0.9249409043892086  0.5195328019928296 1.0000   
         H         H         1.0       0.7081995023803579  0.9608955850377107  0.5451213449253748 1.0000   
         C         C         1.0       0.0296386900079062  0.9107223160733016  0.6423431495533568 1.0000   
         C         C         1.0       0.0642439929474814  0.9350518034015637  0.6447486155967123 1.0000   
         H         H         1.0       0.013430033587615409          0.9295209648122259 0.6504001729595735 1.0000   
         H         H         1.0       0.039010205350257454          0.8881954746545331 0.6596048047251041 1.0000   
         H         H         1.0       0.07538580885920254           0.9493561049000202 0.6681793185858081 1.0000   
         H         H         1.0       0.08551955035368519           0.9144090961702248 0.6455920040470409 1.0000   
         C         C         1.0       0.8458997188488764  0.916225196784823   0.42278113657678024          1.0000   
         C         C         1.0       0.8167955309534247  0.9179592991880011  0.4372059723224747 1.0000   
         H         H         1.0       0.8327454131394746  0.8960932930282479  0.4006441266894139 1.0000   
         H         H         1.0       0.8545011552523668  0.9469278541612168  0.41812050382364857          1.0000   
         H         H         1.0       0.8275922748610337  0.9333380304611245  0.46001528148719434          1.0000   
         H         H         1.0       0.8115594941425698  0.8858891933469912  0.43812146105835653          1.0000   
         C         C         1.0       0.7798251460193394  0.9308694564991612  0.18894471763137632          1.0000   
         C         C         1.0       0.7738349046747652  0.8874453098487878  0.19759021031553997          1.0000   
         H         H         1.0       0.7570100091540366  0.9499277315349124  0.1867348543908288 1.0000   
         H         H         1.0       0.798707617517643   0.9482554381710345  0.2085481998052272 1.0000   
         H         H         1.0       0.7499085262900561  0.8732267612192741  0.1796312126902624 1.0000   
         H         H         1.0       0.7640095524032021  0.8900867401929181  0.2167153277090988 1.0000   
         C         C         1.0       0.9620191300067245  0.6966303428024397  0.4295071990216404 1.0000   
         C         C         1.0       0.9844350790486653  0.6947399536268671  0.46452620484161444          1.0000   
         H         H         1.0       0.9311097245898609  0.6982322823760015  0.42375818070254073          1.0000   
         H         H         1.0       0.9595075124048335  0.6673535430482874  0.4173722200201886 1.0000   
         H         H         1.0       0.013509319579115386          0.6971446196325597 0.46688927854536477          1.0000   
         H         H         1.0       0.9828373997970429  0.665189557295552   0.4731643539763176 1.0000   
         C         C         1.0       0.048682512379722986          0.8801412449545246 0.1457362879691424 1.0000   
         C         C         1.0       0.04502163821320582           0.8690001463395226 0.11541722935246113          1.0000   
         C         C         1.0       0.013862742933836714          0.8515160982474445 0.09468715081852452          1.0000   
         C         C         1.0       0.9834682684528907  0.8482738375048394  0.1011737132407231 1.0000   
         C         C         1.0       0.9882059542423538  0.8536140004452771  0.13260604644123264          1.0000   
         C         C         1.0       0.020593945015654036          0.8698496996009539 0.154298916627585  1.0000   
         H         H         1.0       0.06810441743555207           0.8759372466739664 0.1104439038186058 1.0000   
         H         H         1.0       0.012064252182972135          0.8491205272867616 0.07258441486987088          1.0000   
         H         H         1.0       0.9648240261987611  0.8477705264846332  0.13959715468418543          1.0000   
         H         H         1.0       0.021024141001730223          0.8786967194027671 0.17722614400964432          1.0000   
         C         C         1.0       0.9575568026163505  0.7783317779169598  0.048778126663432175         1.0000   
         C         C         1.0       0.9443748189354968  0.7929825418886537  0.06943085790024339          1.0000   
         C         C         1.0       0.9288566451876719  0.7662000146274316  0.08232149944955891          1.0000   
         C         C         1.0       0.9151279985527605  0.7299263681755872  0.06654541009886872          1.0000   
         C         C         1.0       0.9228918143091882  0.7185364867846139  0.04167143388539185          1.0000   
         C         C         1.0       0.9474277923656195  0.7407218439628003  0.03548110655045211          1.0000   
         C         C         1.0       0.9432696592900952  0.8406139120789253  0.07473947401150838          1.0000   
         C         C         1.0       0.935471879325223   0.8637478297006186  0.04368843698882441          1.0000   
         C         C         1.0       0.9068059219748548  0.8514789129577591  0.015345394101460963         1.0000   
         C         C         1.0       0.8958358427937715  0.8749833638055453  0.9898087510929422 1.0000   
         C         C         1.0       0.9115645106271341  0.9106468258577379  0.9907894545678931 1.0000   
         C         C         1.0       0.9413640389762177  0.9229612079479085  0.016538872830824003         1.0000   
         C         C         1.0       0.9505140103497982  0.9018465343396693  0.042589537692253376         1.0000   
         C         C         1.0       0.9102025157676843  0.8922994877018624  0.09520050607992814          1.0000   
         C         C         1.0       0.8806973584430134  0.9088310341569893  0.09791487519492503          1.0000   
         C         C         1.0       0.8465041331938451  0.8912059205665429  0.08391067955936649          1.0000   
         C         C         1.0       0.845142307124891   0.851248283450288   0.07258046487961844          1.0000   
         C         C         1.0       0.8757328781775112  0.8354067659177131  0.06847981831177474          1.0000   
         C         C         1.0       0.9081307054092471  0.8572804463464662  0.07933371484239649          1.0000   
         C         C         1.0       0.8095531078456878  0.9158371458537199  0.07604216091543825          1.0000   
         C         C         1.0       0.7293729443419575  0.8501465714176913  0.9920484061695662 1.0000   
         C         C         1.0       0.7368707280690194  0.8392194916920995  0.021677685330438345         1.0000   
         C         C         1.0       0.76074143650619    0.860928136441845   0.04703423759592762          1.0000   
         C         C         1.0       0.7781071928815186  0.8947247541186785  0.043650617012204185         1.0000   
         C         C         1.0       0.7703231589622598  0.9065135081269071  0.013127731327744696         1.0000   
         C         C         1.0       0.7468269163676757  0.8838489714993412  0.9875935752983018 1.0000   
         C         C         1.0       0.8146141442815752  0.959849738306469   0.06593342934469892          1.0000   
         C         C         1.0       0.8358087606348021  0.9675652957583623  0.04967106181580849          1.0000   
         C         C         1.0       0.8420389735161669  0.00607653100280281           0.04367944507961252          1.0000   
         C         C         1.0       0.8244982368411135  0.03777754034663028           0.052007579636643486         1.0000   
         C         C         1.0       0.7994864814212296  0.029318972678905375         0.0640019591432337 1.0000   
         C         C         1.0       0.7951926235278179  0.9912056965627204  0.0718060066231827 1.0000   
         C         C         1.0       0.7682983806386998  0.9132290629676295  0.10762078824152566          1.0000   
         C         C         1.0       0.7607456031169553  0.9200345592927832  0.1335305314989852 1.0000   
         C         C         1.0       0.7893323028043036  0.9292165952762136  0.16130465669715432          1.0000   
         C         C         1.0       0.822577575955403   0.9375545274579965  0.16139595772268045          1.0000   
         C         C         1.0       0.8285051334507008  0.9338707642133269  0.1348416249142459 1.0000   
         C         C         1.0       0.8030286102665608  0.9186958741848609  0.10827234523687812          1.0000   
         H         H         1.0       0.9723634994610608  0.7978354824004724  0.040881771251021215         1.0000   
         H         H         1.0       0.9207146443161558  0.7768410747090925  0.10003436382372954          1.0000   
         H         H         1.0       0.895201393397684   0.713987715285298   0.07161492055381347          1.0000   
         H         H         1.0       0.9579696853011822  0.7288559130430466  0.018326279951863533         1.0000   
         H         H         1.0       0.8922172611178094  0.8243294271169618  0.013227094338978063         1.0000   
         H         H         1.0       0.8749350351781208  0.8636549604881771  0.9677201257431205 1.0000   
         H         H         1.0       0.9566718736719404  0.9496622842292897  0.01855660142791038          1.0000   
         H         H         1.0       0.9700048487539834  0.915442945010312   0.0631652296911116 1.0000   
         H         H         1.0       0.9354116701139187  0.9095891710592467  0.10715259483487638          1.0000   
         H         H         1.0       0.8824666378731567  0.9380772849091322  0.110228877994905  1.0000   
         H         H         1.0       0.8221713469880028  0.8307655231792831  0.0651395447113785 1.0000   
         H         H         1.0       0.8728752566863377  0.8076895135794501  0.055384584699780914         1.0000   
         H         H         1.0       0.7237213977924316  0.8099855197880375  0.02042964491965593          1.0000   
         H         H         1.0       0.7674486082515307  0.8466790698416173  0.06925225577613192          1.0000   
         H         H         1.0       0.7808704941704456  0.935235157587362   0.007881148709037555         1.0000   
         H         H         1.0       0.7426726990841371  0.8972412511478411  0.9651160922926789 1.0000   
         H         H         1.0       0.8497591780326056  0.9446986254218704  0.04412042905986291          1.0000   
         H         H         1.0       0.8592232569619914  0.012328648213979498         0.03153187385186529          1.0000   
         H         H         1.0       0.7869772253263709  0.053069640317374045         0.06996110744492912          1.0000   
         H         H         1.0       0.7747563947371255  0.9863066269731251  0.08152223066078101          1.0000   
         H         H         1.0       0.7441431408564045  0.903395208830343   0.08703048212760134          1.0000   
         H         H         1.0       0.7349619810307538  0.9111783009309077  0.13310798384740874          1.0000   
         H         H         1.0       0.8442454347970054  0.9459343365712821  0.18476316832649786          1.0000   
         H         H         1.0       0.8548900858114149  0.9451681616186905  0.13735171129134782          1.0000   
         C         C         1.0       0.9303816741553398  0.8864604782252815  0.8879580022226963 1.0000   
         C         C         1.0       0.9634832043673545  0.8730080560449706  0.9055065441181245 1.0000   
         C         C         1.0       0.9656923029688239  0.8360620133614186  0.9183033752999024 1.0000   
         C         C         1.0       0.9374723135030757  0.8105004207133045  0.9145959469080698 1.0000   
         C         C         1.0       0.9030380943367614  0.8269597415562908  0.8974914837137408 1.0000   
         C         C         1.0       0.9002278104220475  0.8648228582370472  0.8852883278851809 1.0000   
         H         H         1.0       0.9874510414428201  0.89416797764004    0.9105597909654717 1.0000   
         H         H         1.0       0.9939713188404503  0.8333025253457134  0.9352161369470599 1.0000   
         H         H         1.0       0.8787873750087363  0.8090558640007718  0.8921542892229672 1.0000   
         H         H         1.0       0.8732487379755991  0.874490982555817   0.8718045121810486 1.0000   
         C         C         1.0       0.8977130555326363  0.7688353298852081  0.9499937941690962 1.0000   
         C         C         1.0       0.9131348769219694  0.7473290582259158  0.9323041780717806 1.0000   
         C         C         1.0       0.9049099470126849  0.7066941068239354  0.9272730734719773 1.0000   
         C         C         1.0       0.8919314395065757  0.686274948479735   0.9456151992050847 1.0000   
         C         C         1.0       0.8806379544923333  0.7086151632194395  0.9653833744786338 1.0000   
         C         C         1.0       0.880824820053662   0.7490483000201382  0.9646217451810832 1.0000   
         C         C         1.0       0.9436190672319981  0.766175792029005   0.9231872583259528 1.0000   
         C         C         1.0       0.9769095647913206  0.7567018989629071  0.9551484482063433 1.0000   
         C         C         1.0       0.9937997836795035  0.7193183584589826  0.9609586867489779 1.0000   
         C         C         1.0       0.021607625864940916          0.7117303174693869 0.9897427447193009 1.0000   
         C         C         1.0       0.03154640372506523           0.7413189370533853 0.014124752166666976         1.0000   
         C         C         1.0       0.01641920023313337           0.7765533341624893 0.006819597771053676         1.0000   
         C         C         1.0       0.987658769527633   0.7843425435440706  0.9799854700336973 1.0000   
         C         C         1.0       0.9152094948735291  0.7441033313642091  0.8648882309926172 1.0000   
         C         C         1.0       0.9148767292163973  0.7433117402552221  0.8353805459894248 1.0000   
         C         C         1.0       0.9467288355126289  0.7450631610452971  0.8312097215006676 1.0000   
         C         C         1.0       0.9770892710088707  0.7389356829152715  0.8577205476351117 1.0000   
         C         C         1.0       0.9776863873585215  0.7417564406468082  0.8872963680391853 1.0000   
         C         C         1.0       0.9459486486378476  0.7479666319278477  0.8912730559782167 1.0000   
         C         C         1.0       0.9472878464340161  0.7504815903765291  0.7986192268089366 1.0000   
         C         C         1.0       0.9371766222002563  0.627293135993109   0.7635538099244042 1.0000   
         C         C         1.0       0.9063909119187858  0.647829843085431   0.7590431730520486 1.0000   
         C         C         1.0       0.9094808396701017  0.6871264787317882  0.7701134842182278 1.0000   
         C         C         1.0       0.9441245850540477  0.7048827346655694  0.7863423553037829 1.0000   
         C         C         1.0       0.9744096997935231  0.6814622918198723  0.7921244720033179 1.0000   
         C         C         1.0       0.9716374985463065  0.6447453679275932  0.7802202254676107 1.0000   
         C         C         1.0       0.9819465961800051  0.7754603464163656  0.7995892319196183 1.0000   
         C         C         1.0       0.9958884110261762  0.8096621045561597  0.818562509721357  1.0000   
         C         C         1.0       0.018410681792276895          0.8370893691298473 0.8140629866174232 1.0000   
         C         C         1.0       0.03593382655546784           0.8254553998094453 0.7961249277963777 1.0000   
         C         C         1.0       0.02383096662575168           0.7913639724042486 0.7764432686161615 1.0000   
         C         C         1.0       0.9950602412394401  0.7690830045964858  0.7764064791616989 1.0000   
         C         C         1.0       0.9081684202291104  0.7748413337230217  0.7427621182609652 1.0000   
         C         C         1.0       0.8919821882485183  0.8049644044061592  0.7232817287577604 1.0000   
         C         C         1.0       0.8867570590540473  0.8413437407562431  0.7359800378744676 1.0000   
         C         C         1.0       0.8906455484889416  0.842744515027498   0.7666838192873613 1.0000   
         C         C         1.0       0.906657050361543   0.8116113084747965  0.7850204503490511 1.0000   
         C         C         1.0       0.9184466934375495  0.7782959364678596  0.7749473468256832 1.0000   
         H         H         1.0       0.9042223235148851  0.799937800149136   0.9546000838679352 1.0000   
         H         H         1.0       0.9161673976654218  0.6893240891995684  0.9141565095305944 1.0000   
         H         H         1.0       0.8930781409897998  0.6560522110015792  0.9462274796633144 1.0000   
         H         H         1.0       0.8759780395054145  0.7654084078476298  0.9826575351811294 1.0000   
         H         H         1.0       0.981778301833819   0.6957280637044343  0.9439945928777272 1.0000   
         H         H         1.0       0.033592154305329025          0.6816092684127648 0.9944805892918298 1.0000   
         H         H         1.0       0.023159669539678074          0.7989660098739026 0.024910274168916002         1.0000   
         H         H         1.0       0.9727695592952524  0.8114945254346309  0.9767794111141421 1.0000   
         H         H         1.0       0.8907863672631351  0.743924429450269   0.8674264143453054 1.0000   
         H         H         1.0       0.8893341118534729  0.7405735174616821  0.8180439145048096 1.0000   
         H         H         1.0       0.003614390792206157          0.7339286230522342 0.8550158621796825 1.0000   
         H         H         1.0       0.0015500198905566975         0.7464772579108089 0.9067460956739221 1.0000   
         H         H         1.0       0.8805778414189317  0.6345975835975965  0.7468843709853399 1.0000   
         H         H         1.0       0.884805477675482   0.7042322755235292  0.7640142375230372 1.0000   
         H         H         1.0       0.0015986865495098979         0.6902844390245463 0.8085498011076777 1.0000   
         H         H         1.0       0.9971137216104475  0.6316935611726395  0.786535740674918  1.0000   
         H         H         1.0       0.9802920982418016  0.8153324876243313  0.8324876655495933 1.0000   
         H         H         1.0       0.021657322214812647          0.867037733234563  0.8251568327036666 1.0000   
         H         H         1.0       0.03484670857120031           0.7839379131323366 0.7585618337114448 1.0000   
         H         H         1.0       0.9865106336691496  0.7443872826789315  0.7616525954932873 1.0000   
         H         H         1.0       0.9102494623482118  0.7466798582056139  0.7311743684023615 1.0000   
         H         H         1.0       0.8863042947775552  0.7984374305568115  0.7000564420393809 1.0000   
         H         H         1.0       0.8864701091343952  0.8687807556928     0.7784190568888245 1.0000   
         H         H         1.0       0.914188665707718   0.8143508239947138  0.8097218972287021 1.0000   
         C         C         1.0       0.9639719841814963  0.03145783896455079           0.9636430978151406 1.0000   
         C         C         1.0       0.9955680756783042  0.027711011230317602         0.9598442572796031 1.0000   
         C         C         1.0       0.02675847448312596           0.022212768927473814         0.9838349928678983 1.0000   
         C         C         1.0       0.02645003005857638           0.022779479585389284         0.013579140236795517         1.0000   
         C         C         1.0       0.9941749572612698  0.029652871338887055         0.016815357725447067         1.0000   
         C         C         1.0       0.9634925130714642  0.03371565867082138           0.9924768718246375 1.0000   
         H         H         1.0       0.997776787172509   0.032207551841482385         0.9378830837999491 1.0000   
         H         H         1.0       0.05134808300523863           0.022614581090006913         0.9796609854876428 1.0000   
         H         H         1.0       0.9957104422926567  0.035431810284560106         0.03981056800506755          1.0000   
         H         H         1.0       0.9383535580386976  0.0399436006646261  0.9944598913347752 1.0000   
         C         C         1.0       0.08084423058713641           0.02594708278446256          0.10233220023985434          1.0000   
         C         C         1.0       0.060837513287658185          0.008649743320708891         0.07398496239098495          1.0000   
         C         C         1.0       0.03759837838446689           0.9764916528877428 0.0729522855786402 1.0000   
         C         C         1.0       0.034957997414664765          0.96520935273278   0.09958574770716133          1.0000   
         C         C         1.0       0.061930688299086656          0.9756628525112432 0.1285129634499309 1.0000   
         C         C         1.0       0.08240043988963297           0.010012655405390758         0.13011358752322533          1.0000   
         C         C         1.0       0.06518343545127836           0.02152709574885292          0.04409679204024508          1.0000   
         C         C         1.0       0.07793458654742635           0.06598545808642875          0.04363550557256701          1.0000   
         C         C         1.0       0.10521915094298873           0.07596847353760272          0.03460632840891931          1.0000   
         C         C         1.0       0.11793147842810803           0.11473980759006008          0.03723183315849554          1.0000   
         C         C         1.0       0.1034775255199496  0.14474680708073984           0.04878288277290044          1.0000   
         C         C         1.0       0.07428233798046047           0.1363227300365064 0.05732442154848627          1.0000   
         C         C         1.0       0.06219654841626454           0.09766275199598606          0.054577301221304  1.0000   
         C         C         1.0       0.08447980996074378           0.9542662793350645 0.023726468365097064         1.0000   
         C         C         1.0       0.11015753604628786           0.9264980698222245 0.025673045883837897         1.0000   
         C         C         1.0       0.14487599904434245           0.9283976126423693 0.04943327112232043          1.0000   
         C         C         1.0       0.15391123373271087           0.9630078105889935 0.06853624658181467          1.0000   
         C         C         1.0       0.1286397831720143  0.9919198634075226  0.06497792227024957          1.0000   
         C         C         1.0       0.0943595951439482  0.9907313636167318  0.04326479737947553          1.0000   
         C         C         1.0       0.17168164532608587           0.8909186977107647 0.05301369777983167          1.0000   
         C         C         1.0       0.10444991854824237           0.7951319982241815 0.06903324362059604          1.0000   
         C         C         1.0       0.11331272439558515           0.7944049013508139 0.043899446864352765         1.0000   
         C         C         1.0       0.13065491064195967           0.8260269925835891 0.03841580062847738          1.0000   
         C         C         1.0       0.14839415351263519           0.8559015093272436 0.059967598256524424         1.0000   
         C         C         1.0       0.1429491842078452  0.8534727608587224  0.08781046189956454          1.0000   
         C         C         1.0       0.11802843664395124           0.8258184703392933 0.09026219877592312          1.0000   
         C         C         1.0       0.6967200983251047  0.051164136808388605         0.9762897556558946 1.0000   
         C         C         1.0       0.7091180557763839  0.0857408391268335  0.99384543824033   1.0000   
         C         C         1.0       0.7433773974101343  0.09897575108460699           0.0012889214451039521        1.0000   
         C         C         1.0       0.7672123164562592  0.07837974462143804           0.9922160357933204 1.0000   
         C         C         1.0       0.7549340926568661  0.043600152876504206         0.9742497512914726 1.0000   
         C         C         1.0       0.7197704740123684  0.029248125758307042         0.9654839984452817 1.0000   
         C         C         1.0       0.19659591953613575           0.8499697810181699 0.021084950099200084         1.0000   
         C         C         1.0       0.2109939714026816  0.8448766549242568  0.9986176075746325 1.0000   
         C         C         1.0       0.21029319186415285           0.8749247905387416 0.9804983271791107 1.0000   
         C         C         1.0       0.1902623372258132  0.9078818443535948  0.9798948992793881 1.0000   
         C         C         1.0       0.17382336728419445           0.9113296407093189 0.9995516323724838 1.0000   
         C         C         1.0       0.17940537513926436           0.8837748830821216 0.023493242453407337         1.0000   
         H         H         1.0       0.1019452955199518  0.049497062989326324         0.104331495321069  1.0000   
         H         H         1.0       0.018233086859466452          0.9585917145513747 0.054103779428078314         1.0000   
         H         H         1.0       0.013891675704160722          0.944511025110696  0.0990427810608463 1.0000   
         H         H         1.0       0.10040878790899943           0.018757828630419082         0.15394354233660668          1.0000   
         H         H         1.0       0.1201068402782659  0.05385142864712433           0.026672090783084634         1.0000   
         H         H         1.0       0.13923172847093013           0.1238477273891625 0.030508905339563297         1.0000   
         H         H         1.0       0.08853038631618215           0.15223173685212799          0.6569222148561759 1.0000   
         H         H         1.0       0.03961643206220433           0.08947802470329824          0.059592911469698695         1.0000   
         H         H         1.0       0.056136494351622046          0.9487776094959565 0.006930426302496739         1.0000   
         H         H         1.0       0.1026756826501527  0.900785297857219   0.007403789925011006         1.0000   
         H         H         1.0       0.18005568516684645           0.9690359399512092 0.08801247312943938          1.0000   
         H         H         1.0       0.13699066897959455           0.01439259733643472          0.08348809820601288          1.0000   
         H         H         1.0       0.10367452512777908           0.7707211450750888 0.024550601475176625         1.0000   
         H         H         1.0       0.1308759880937167  0.823748781946943   0.01574351775528382          1.0000   
         H         H         1.0       0.1483593199622324  0.8769906502207618  0.1044974891759416 1.0000   
         H         H         1.0       0.11033695626737638           0.828299049571473  0.1103760715066362 1.0000   
         H         H         1.0       0.6918601988568989  0.10239144338305817           0.003130187559189368         1.0000   
         H         H         1.0       0.7523389848452563  0.12421060268613338           0.016397310648970986         1.0000   
         H         H         1.0       0.773181896389099   0.025045022079219548         0.9687521651964274 1.0000   
         H         H         1.0       0.2148883153794161  0.8366772224649347  0.09925977347362247          1.0000   
         H         H         1.0       0.19912308699426662           0.8279288906015869 0.038379026190710874         1.0000   
         H         H         1.0       0.2257627822939705  0.8200938896565463  0.9987590013675887 1.0000   
         H         H         1.0       0.19386984548609942           0.9357698141426812 0.9686164268285531 1.0000   
         H         H         1.0       0.16272945738285394           0.939198311984157  0.001928454714444472         1.0000   
         C         C         1.0       0.9113373170269683  0.17399677105221967           0.787044716230624  1.0000   
         C         C         1.0       0.8969250606038105  0.14427462839659033           0.7636784673093894 1.0000   
         C         C         1.0       0.8790959771806405  0.11287640356275164           0.7687883854783663 1.0000   
         C         C         1.0       0.8785340190403166  0.10899972763686705           0.7989604717652693 1.0000   
         C         C         1.0       0.8973879230905456  0.13639781636254122           0.8222001144243117 1.0000   
         C         C         1.0       0.9104018669414905  0.172261723381548   0.8155480402995727 1.0000   
         H         H         1.0       0.9020611164921644  0.14374502323728477           0.7420926948581255 1.0000   
         H         H         1.0       0.867350170877943   0.0887693914780534  0.7520914849195733 1.0000   
         H         H         1.0       0.9013139142120038  0.13397078784038885           0.845310954872395  1.0000   
         H         H         1.0       0.9207854440571404  0.19520639141979435           0.8332740230077021 1.0000   
         C         C         1.0       0.8910558783322664  0.007559189316108217         0.7928777059852382 1.0000   
         C         C         1.0       0.8869333473869191  0.03781913923478042           0.8109032621609304 1.0000   
         C         C         1.0       0.9132380701600681  0.036845164899163674         0.8426669250875214 1.0000   
         C         C         1.0       0.9350677682186547  0.0055942110155462466        0.854441684417313  1.0000   
         C         C         1.0       0.933247533614635   0.9735598078449442  0.8349343328314272 1.0000   
         C         C         1.0       0.9147251949786397  0.9755173106254115  0.8042353715346962 1.0000   
         C         C         1.0       0.8564878756808089  0.07140046377322928           0.8011691969766799 1.0000   
         C         C         1.0       0.8202660296641886  0.062346943544034916         0.7703959995759522 1.0000   
         C         C         1.0       0.8073738007327098  0.023693939115288387         0.7601997893373845 1.0000   
         C         C         1.0       0.7733691926497887  0.018804854161046602         0.7362194090566575 1.0000   
         C         C         1.0       0.7530969800837031  0.05257100119726599           0.723219741395224  1.0000   
         C         C         1.0       0.7665345265248189  0.09080454984639408           0.7350401890364803 1.0000   
         C         C         1.0       0.7995688362272809  0.09499099842203385           0.7570090080038416 1.0000   
         C         C         1.0       0.8277819151261476  0.10421189780254925           0.836026708500531  1.0000   
         C         C         1.0       0.8053904602036664  0.10436896500583459           0.8511850905495246 1.0000   
         C         C         1.0       0.7911448712834589  0.06839395026525907           0.8562239493576098 1.0000   
         C         C         1.0       0.8069746965034563  0.033043430648046934         0.8510308460034977 1.0000   
         C         C         1.0       0.8294821712642745  0.033186714064382894         0.8352150075690797 1.0000   
         C         C         1.0       0.8389545983023209  0.07045981862008022           0.826121521693317  1.0000   
         C         C         1.0       0.7628715745853706  0.06508719305929467           0.8724898652708508 1.0000   
         C         C         1.0       0.8391116605404364  0.99609445655705    0.9461869203178593 1.0000   
         C         C         1.0       0.839839105091861   0.03751488942250658           0.9475941960041028 1.0000   
         C         C         1.0       0.8149486899993994  0.06019345153794986           0.9262090814924155 1.0000   
         C         C         1.0       0.7857753067017368  0.04117908430654804           0.9021950483469686 1.0000   
         C         C         1.0       0.7830472481646517  0.9981640454841084  0.9022626844023335 1.0000   
         C         C         1.0       0.8105694278471602  0.976571982051269   0.9231362001793115 1.0000   
         C         C         1.0       0.726370924197728   0.03881024132698885           0.8523609636789262 1.0000   
         C         C         1.0       0.7197822033699809  0.028418309972240152         0.8222608376221112 1.0000   
         C         C         1.0       0.13980301035752052           0.9252645671420705 0.823339556525265  1.0000   
         C         C         1.0       0.12705120621568344           0.8857666977393469 0.8210486074935025 1.0000   
         C         C         1.0       0.15051638637836096           0.8558818811627795 0.8228634822016451 1.0000   
         C         C         1.0       0.7014878526825807  0.022734436282296766         0.8637345871160818 1.0000   
         C         C         1.0       0.7437089500256346  0.1147599664444261  0.905989767747653  1.0000   
         C         C         1.0       0.7218374038037156  0.14316397756926125           0.9089250466295344 1.0000   
         C         C         1.0       0.6962836643951696  0.16074659184843876           0.8838787844713507 1.0000   
         C         C         1.0       0.6995739130811545  0.15524922664438456           0.8554449760706142 1.0000   
         C         C         1.0       0.7248932226317751  0.12939646328685184           0.8525953553619564 1.0000   
         C         C         1.0       0.745574658056144   0.10611021344283378           0.8776690897096615 1.0000   
         H         H         1.0       0.8727610647815518  0.008613214252887191         0.7685571917380344 1.0000   
         H         H         1.0       0.9159407331949392  0.06203896015037702           0.8591007140626548 1.0000   
         H         H         1.0       0.9512972080774657  0.00894968574524424           0.8782287816316674 1.0000   
         H         H         1.0       0.9156809190677164  0.9517668343680061  0.7891513220469824 1.0000   
         H         H         1.0       0.8207234688445971  0.9959944563638263  0.7710302604040056 1.0000   
         H         H         1.0       0.7640922878994734  0.9878136031679619  0.7296532904598229 1.0000   
         H         H         1.0       0.7504809268854687  0.1179614983969508  0.7257087543507488 1.0000   
         H         H         1.0       0.8081205155344379  0.12395176748458336           0.7693759618199127 1.0000   
         H         H         1.0       0.8362796142208601  0.13332879977945256           0.8314066838882209 1.0000   
         H         H         1.0       0.7949357920162274  0.13174044472882795           0.8540638143615269 1.0000   
         H         H         1.0       0.7984457419512676  0.0052257278668450535        0.8542584335249626 1.0000   
         H         H         1.0       0.833613785387018   0.004364138879101365         0.8266904032174729 1.0000   
         H         H         1.0       0.8620915619669058  0.05046076232034369           0.9673980408141368 1.0000   
         H         H         1.0       0.8195604327734352  0.09116202566739817           0.926350435104689  1.0000   
         H         H         1.0       0.7649225998347231  0.9816104911073096  0.8811622458364012 1.0000   
         H         H         1.0       0.8116396345035238  0.9439322214789094  0.9189844048157965 1.0000   
         H         H         1.0       0.7364885871896909  0.03872812350300814           0.8108263150923406 1.0000   
         H         H         1.0       0.12010196958240593           0.9508973558219884 0.8200749727833179 1.0000   
         H         H         1.0       0.14329788066223403           0.8250245694066662 0.8229839714873938 1.0000   
         H         H         1.0       0.7040412155162552  0.027523546755157557         0.8872568056013209 1.0000   
         H         H         1.0       0.7588950875651485  0.10053796909094714           0.9276359629317796 1.0000   
         H         H         1.0       0.7196830008783963  0.1486546078798454  0.9296481502158112 1.0000   
         H         H         1.0       0.6841717046537669  0.17403737815641507           0.8364516650587608 1.0000   
         H         H         1.0       0.7263548104116982  0.12813770190118845           0.8301483238777128 1.0000   
         C         C         1.0       0.7267712550502644  0.7555185061789957  0.9473295114663134 1.0000   
         C         C         1.0       0.7408388605466472  0.7386358497457364  0.9756070644891961 1.0000   
         C         C         1.0       0.7404314279750235  0.6981132936185446  0.9765606220308038 1.0000   
         C         C         1.0       0.7308043467079669  0.6736569049955369  0.9494435198234462 1.0000   
         C         C         1.0       0.7165116984842924  0.6935321167880644  0.9213475485956042 1.0000   
         C         C         1.0       0.7144058558326851  0.7351895816925909  0.9203814705361414 1.0000   
         H         H         1.0       0.7513276168376325  0.7577867711584411  0.9949357810636533 1.0000   
         H         H         1.0       0.7559418598155004  0.6865294534033561  0.9992300761904624 1.0000   
         H         H         1.0       0.7083902907924259  0.6755145387813524  0.8999014138629091 1.0000   
         H         H         1.0       0.7041681114342637  0.7537649331743598  0.9007154218316309 1.0000   
         C         C         1.0       0.6814128611380716  0.6187402063092782  0.9671518610898905 1.0000   
         C         C         1.0       0.6934660105553121  0.6118773187982846  0.9442330308466005 1.0000   
         C         C         1.0       0.6703744487007041  0.5953989411572539  0.9168629565258795 1.0000   
         C         C         1.0       0.6366978890057111  0.5843885958339501  0.9133224075024858 1.0000   
         C         C         1.0       0.6233512833540291  0.5911357264673209  0.9369485532731314 1.0000   
         C         C         1.0       0.6466817712321218  0.6080636903575962  0.9638182782260425 1.0000   
         C         C         1.0       0.7334785724721904  0.6264471545221203  0.9502265564416928 1.0000   
         C         C         1.0       0.7611895934569333  0.6067258812850103  0.9807598661104389 1.0000   
         C         C         1.0       0.7551896697063886  0.5709156080811316  0.9918580684912945 1.0000   
         C         C         1.0       0.7815421919965634  0.5537501149061975  0.016452662794468553         1.0000   
         C         C         1.0       0.8148601856935415  0.5717268249533298  0.030392428827805018         1.0000   
         C         C         1.0       0.8239767614757586  0.6057499050661518  0.01934629679140354          1.0000   
         C         C         1.0       0.7965292087371191  0.6222139684151549  0.992928615365296  1.0000   
         C         C         1.0       0.7755289684907246  0.6310986792095121  0.9196703579578807 1.0000   
         C         C         1.0       0.7929310403009489  0.6145178477882197  0.9020356459785991 1.0000   
         C         C         1.0       0.7872926001642109  0.5758393164562433  0.8908926372407404 1.0000   
         C         C         1.0       0.7619990284477618  0.5533370433944991  0.896511708215314  1.0000   
         C         C         1.0       0.747014942214384   0.5673291016558784  0.9164718674383594 1.0000   
         C         C         1.0       0.7517582819355394  0.6080474523693898  0.9276241656887814 1.0000   
         C         C         1.0       0.805737855415237   0.5539855814758929  0.8707233858276721 1.0000   
         C         C         1.0       0.7136198013780607  0.5327263940565192  0.7803170884104054 1.0000   
         C         C         1.0       0.7237686212820748  0.5698160376700552  0.7909583941836563 1.0000   
         C         C         1.0       0.7526026471872356  0.5779912842205738  0.8185439167122802 1.0000   
         C         C         1.0       0.7723829842596178  0.5462126589408559  0.8376580323806663 1.0000   
         C         C         1.0       0.758561814469317   0.5070020013800896  0.8280715520446822 1.0000   
         C         C         1.0       0.7317730401136424  0.5008936897168359  0.7995233627732677 1.0000   
         C         C         1.0       0.8264564062264332  0.5132710103843371  0.8857410337031566 1.0000   
         C         C         1.0       0.8365204037599254  0.5052009855594151  0.916668032360092  1.0000   
         C         C         1.0       0.8574421014583024  0.4737976963987616  0.9281677069983159 1.0000   
         C         C         1.0       0.8654689596693997  0.4467784649112404  0.9091145902454261 1.0000   
         C         C         1.0       0.8526712625719146  0.45365054521190484           0.8779440238843299 1.0000   
         C         C         1.0       0.8362917253676535  0.4882411771100013  0.8661989666043212 1.0000   
         C         C         1.0       0.8385070515085356  0.590630734869044   0.8387237562664527 1.0000   
         C         C         1.0       0.8698709927617836  0.6057123727023095  0.8378526649970649 1.0000   
         C         C         1.0       0.8991601907640814  0.6158714225827429  0.8638876590192867 1.0000   
         C         C         1.0       0.8972332020440716  0.6090585767651613  0.891730659715909  1.0000   
         C         C         1.0       0.8663413479351474  0.5910183836625085  0.8930106117355113 1.0000   
         C         C         1.0       0.8364364466412725  0.5818758980463662  0.8671192117079114 1.0000   
         H         H         1.0       0.6987416024026016  0.6301475038752689  0.9891644469935769 1.0000   
         H         H         1.0       0.6781137769196646  0.5888810910693774  0.8974236308785984 1.0000   
         H         H         1.0       0.6197058017025032  0.567483217898126   0.8929447146507419 1.0000   
         H         H         1.0       0.6398308063301524  0.6066687115757742  0.9828925478909765 1.0000   
         H         H         1.0       0.7271695983921305  0.5580887922619452  0.9818343437767086 1.0000   
         H         H         1.0       0.7726020496869851  0.5282513313503481  0.025012342137893162         1.0000   
         H         H         1.0       0.8504810861433362  0.6190455544601906  0.03109182585123582          1.0000   
         H         H         1.0       0.8058546188935635  0.6482107204243234  0.9842495297640721 1.0000   
         H         H         1.0       0.7813935488934424  0.6616870548948357  0.9274160993516507 1.0000   
         H         H         1.0       0.809668999355291   0.6341303996751084  0.896965377503447  1.0000   
         H         H         1.0       0.7547910063818765  0.5219045817450564  0.8880582148225938 1.0000   
         H         H         1.0       0.7304815769036344  0.5484107812007712  0.9228373633754441 1.0000   
         H         H         1.0       0.7086028083613948  0.593508933388739   0.7798439767532378 1.0000   
         H         H         1.0       0.7608493499099     0.6092641878491432  0.8222613333241728 1.0000   
         H         H         1.0       0.7650034222434948  0.4827536289090359  0.8425472262193487 1.0000   
         H         H         1.0       0.7273497931291993  0.4717436938315643  0.7895726289446289 1.0000   
         H         H         1.0       0.8293641669061769  0.5264793278477488  0.9322627734462031 1.0000   
         H         H         1.0       0.8631730610877794  0.4652758247356421  0.9515670358844142 1.0000   
         H         H         1.0       0.8548541682785693  0.42995114900756626           0.8638759089283271 1.0000   
         H         H         1.0       0.8289327490960694  0.49250878587589025           0.8407380096729338 1.0000   
         H         H         1.0       0.8175389487997139  0.5826504294170545  0.8174260017266382 1.0000   
         H         H         1.0       0.8714368637789808  0.6088952175268237  0.8150588421652372 1.0000   
         H         H         1.0       0.9219551731834704  0.6158107424509036  0.9132198009293802 1.0000   
         H         H         1.0       0.8665378702725689  0.5809300657663549  0.9131041618977727 1.0000   
         C         C         1.0       0.9289725096774673  0.5371340393660686  0.7028652579986331 1.0000   
         C         C         1.0       0.8963922390973963  0.5162260996434458  0.6880875271957279 1.0000   
         C         C         1.0       0.8981027855483712  0.47685330187230734           0.6809300633278274 1.0000   
         C         C         1.0       0.929462236234672   0.45602890111543565           0.6910002667851881 1.0000   
         C         C         1.0       0.9625766450190802  0.47850093283440925           0.7036161427408226 1.0000   
         C         C         1.0       0.9622526704555844  0.5189450177252932  0.7095180886619951 1.0000   
         H         H         1.0       0.870254382611266   0.5305830667886565  0.6835952429942752 1.0000   
         H         H         1.0       0.8747656032061865  0.4601695061361287  0.6794132719410112 1.0000   
         H         H         1.0       0.9884780960502197  0.4649726751418743  0.7121694866138091 1.0000   
         H         H         1.0       0.987927636871251   0.535675927569594   0.7202842428128031 1.0000   
         C         C         1.0       0.975894961641967   0.3975653254874498  0.6716598779535365 1.0000   
         C         C         1.0       0.9634682960275007  0.3880379677489814  0.6945335654358795 1.0000   
         C         C         1.0       0.9759714571482389  0.3540169286289397  0.7106340525503714 1.0000   
         C         C         1.0       0.9997894739255091  0.32750737734357466           0.7051379422187026 1.0000   
         C         C         1.0       0.010774979234265514          0.33638589397202795          0.6814863271677978 1.0000   
         C         C         1.0       0.002114652730943245          0.37462901048496344          0.6677596278991018 1.0000   
         C         C         1.0       0.9277780845200857  0.40788727357791343           0.6951048202525694 1.0000   
         C         C         1.0       0.8969546720076942  0.3809295095928006  0.6698474270376491 1.0000   
         C         C         1.0       0.8881315021534986  0.34446444710220775           0.6779510298895373 1.0000   
         C         C         1.0       0.8644013166713621  0.31827042844701736           0.6570047848642796 1.0000   
         C         C         1.0       0.8479266995481305  0.32595233785721006           0.6262834676910111 1.0000   
         C         C         1.0       0.8595191564663022  0.36069350124629246           0.6173780038121355 1.0000   
         C         C         1.0       0.8812345111704936  0.38834320709686204           0.6383028698280271 1.0000   
         C         C         1.0       0.9514738791120315  0.4210753313241028  0.7544738076527484 1.0000   
         C         C         1.0       0.9452485719119262  0.42849111693786107           0.7809491377872151 1.0000   
         C         C         1.0       0.9109595095132629  0.42724071262286417           0.7795629616952702 1.0000   
         C         C         1.0       0.88452713911891    0.4077358771627461  0.7546862580332837 1.0000   
         C         C         1.0       0.8890178933600605  0.40305582698763537           0.7287774372832211 1.0000   
         C         C         1.0       0.9222859714181988  0.4085227419131466  0.7269412629758037 1.0000   
         C         C         1.0       0.8992081088030011  0.44632577081078323           0.8043163112900432 1.0000   
         C         C         1.0       0.9353778188965466  0.33493735792698354           0.8418892118777308 1.0000   
         C         C         1.0       0.9554834500639335  0.3689210424247473  0.8551155197822471 1.0000   
         C         C         1.0       0.9399324907476864  0.4044258319431514  0.8473784670780954 1.0000   
         C         C         1.0       0.9046693173397485  0.4085089801729993  0.8263471206022505 1.0000   
         C         C         1.0       0.8809586823308092  0.37374276007759416           0.817920350105013  1.0000   
         C         C         1.0       0.8974917738708548  0.337313655750203   0.8262200487173809 1.0000   
         C         C         1.0       0.8596384898032287  0.4664155352203319  0.7855591174291058 1.0000   
         C         C         1.0       0.855752452046434   0.4939247062031553  0.7624462051885851 1.0000   
         C         C         1.0       0.822137320441694   0.5015879266982453  0.7399011401680381 1.0000   
         C         C         1.0       0.7920666767572958  0.4801298570329604  0.7386856941224024 1.0000   
         C         C         1.0       0.7952893874287597  0.4579671913856449  0.7644392614967743 1.0000   
         C         C         1.0       0.8280428119975499  0.4525513250188016  0.7884154478736085 1.0000   
         C         C         1.0       0.9177162647776086  0.493932576164316   0.8498925142571047 1.0000   
         C         C         1.0       0.9354908141599781  0.525669948971933   0.868557095037727  1.0000   
         C         C         1.0       0.9548628536094852  0.5523876667194     0.8586465901353029 1.0000   
         C         C         1.0       0.9581214887354964  0.5443962367858597  0.8313950610766998 1.0000   
         C         C         1.0       0.9391660552349137  0.512248497094021   0.8123582231340905 1.0000   
         C         C         1.0       0.9202940168878461  0.4846407836524068  0.8221791604580487 1.0000   
         H         H         1.0       0.9643173738666374  0.42195601298506275           0.6574843386611752 1.0000   
         H         H         1.0       0.9660680120999438  0.34741165149700903           0.7288140620689242 1.0000   
         H         H         1.0       0.00920646224469035           0.3012598631877169 0.7199192928378029 1.0000   
         H         H         1.0       0.01020875967313195           0.3789770046372562 0.6496568808606179 1.0000   
         H         H         1.0       0.9019134992406473  0.33401288716719807           0.7005192130535091 1.0000   
         H         H         1.0       0.8566839433596612  0.2895734145973566  0.6641626324901219 1.0000   
         H         H         1.0       0.8450005578613677  0.371560224690925   0.5935671834104982 1.0000   
         H         H         1.0       0.885945458811658   0.4165491999766932  0.6306651744770995 1.0000   
         H         H         1.0       0.9789865318983924  0.4276539402825951  0.7575324777312605 1.0000   
         H         H         1.0       0.9672030248479868  0.4372290310798685  0.8021695057709207 1.0000   
         H         H         1.0       0.8589584315836458  0.4013207806091289  0.7559654397071188 1.0000   
         H         H         1.0       0.8636373112357241  0.3958765033061212  0.7095882836882972 1.0000   
         H         H         1.0       0.9827088607160275  0.3715385791503319  0.8700006717595942 1.0000   
         H         H         1.0       0.9609336371592421  0.42809209276591303           0.8558344011967438 1.0000   
         H         H         1.0       0.8536358374160784  0.3741760815691491  0.800157520522007  1.0000   
         H         H         1.0       0.8823455901266389  0.30979196236591744           0.8142368556368741 1.0000   
         H         H         1.0       0.8793771506810036  0.5067745181373077  0.7593719401993304 1.0000   
         H         H         1.0       0.8195765457738435  0.5192526478374246  0.7195053400905075 1.0000   
         H         H         1.0       0.7708965408554418  0.44506448619042543           0.7644901705122598 1.0000   
         H         H         1.0       0.8285714599209971  0.4340961846128213  0.8082381889878925 1.0000   
         H         H         1.0       0.904271079505986   0.47264697215828816           0.8589749153050659 1.0000   
         H         H         1.0       0.9356233818135028  0.5303946414860848  0.8918193220820425 1.0000   
         H         H         1.0       0.9755553533548773  0.562968473817424   0.8248107382461518 1.0000   
         H         H         1.0       0.9421644568487323  0.508135343377676   0.7907460549899681 1.0000   
         C         C         1.0       0.5965689580472413  0.4976071401939781  0.9414924555251873 1.0000   
         C         C         1.0       0.5708838992277944  0.46933575359740926           0.9237806705487455 1.0000   
         C         C         1.0       0.5799483203816171  0.43460066108940437           0.9140848273773877 1.0000   
         C         C         1.0       0.6157297456598393  0.42781285447519535           0.9202751341266674 1.0000   
         C         C         1.0       0.6413412402606297  0.45675217540786744           0.9367677238587157 1.0000   
         C         C         1.0       0.6332545396015392  0.49189247574481393           0.9489016288547011 1.0000   
         H         H         1.0       0.5434045652281171  0.4714534977404942  0.9193087515404279 1.0000   
         H         H         1.0       0.13512996541337663           0.2979714394042761 0.9475845169774303 1.0000   
         H         H         1.0       0.6687122061766144  0.449145357649854   0.9425581520444308 1.0000   
         H         H         1.0       0.6541256791292515  0.5135133300384509  0.9620833580940436 1.0000   
         C         C         1.0       0.6823960225203448  0.3958608110186731  0.9091045657918392 1.0000   
         C         C         1.0       0.10555785920530569           0.18135488327603802          0.9291241113898876 1.0000   
         C         C         1.0       0.08299599486888654           0.14776933483299498          0.926038578099922  1.0000   
         C         C         1.0       0.08738938113736006           0.1131073334219026 0.9119789271254091 1.0000   
         C         C         1.0       0.7362924687933561  0.3592841156383753  0.9350486073541253 1.0000   
         C         C         1.0       0.7172077146762899  0.38924786294161934           0.915058821547596  1.0000   
         C         C         1.0       0.09527917511852846           0.22711403685626436          0.9360394795697222 1.0000   
         C         C         1.0       0.0804017673900006  0.2521464648457389  0.9057576391318727 1.0000   
         C         C         1.0       0.0631761450309345  0.23228381440501225           0.877691574052108  1.0000   
         C         C         1.0       0.03608627574076717           0.24849711966736482          0.8530097299725314 1.0000   
         C         C         1.0       0.022908766773682476          0.2855686840487462 0.8566599932225881 1.0000   
         C         C         1.0       0.040785039131075784          0.3085961181556818 0.8834978201196529 1.0000   
         C         C         1.0       0.07059325001982031           0.2932570627318764 0.9072190384585231 1.0000   
         C         C         1.0       0.06706111086831301           0.24702136977294675          0.976776362473241  1.0000   
         C         C         1.0       0.03943061561119188           0.2479385599288866 0.9864495674898334 1.0000   
         C         C         1.0       0.004769870934721476          0.24006788311622904          0.9658911112559034 1.0000   
         C         C         1.0       4.279446135768694e-05         0.22529169943713886          0.9374009455101565 1.0000   
         C         C         1.0       0.028345892140797302          0.22119006601789493          0.9281159716652954 1.0000   
         C         C         1.0       0.06377310429659588           0.23049913258787608          0.9479138087528026 1.0000   
         C         C         1.0       0.9706132962948195  0.24378755451920137           0.9750349523986588 1.0000   
         C         C         1.0       0.9394376973009336  0.12202298534797203           0.9394486733914661 1.0000   
         C         C         1.0       0.9705609403785231  0.1296521387292831  0.9665107776337952 1.0000   
         C         C         1.0       0.9762520750711078  0.16711687348811566           0.97934279727762   1.0000   
         C         C         1.0       0.9536020620041227  0.19870905933646074           0.9667773874094965 1.0000   
         C         C         1.0       0.9204933628555765  0.18917355874440966           0.943001885367351  1.0000   
         C         C         1.0       0.9155956016888619  0.15238678067191214           0.9266513821250647 1.0000   
         C         C         1.0       0.9424753743762188  0.27655578510052625           0.9555918734645498 1.0000   
         C         C         1.0       0.9490747346250196  0.30265274901079203           0.9356366677383307 1.0000   
         C         C         1.0       0.9224262075248384  0.3270840091225145  0.916738594139334  1.0000   
         C         C         1.0       0.8931017965632554  0.33326485760437946           0.9240699378423427 1.0000   
         C         C         1.0       0.8872020791308544  0.3101139141631886  0.9447892029757899 1.0000   
         C         C         1.0       0.909806865908093   0.282305357228593   0.9598894561086317 1.0000   
         C         C         1.0       0.9815576975673797  0.230924029394434   0.033716823701573695         1.0000   
         C         C         1.0       0.9963233717230805  0.24415803598192173           0.06466649046048145          1.0000   
         C         C         1.0       0.014060750296713831          0.28103852759091474          0.07285569306775641          1.0000   
         C         C         1.0       0.5231107622328119  0.40372527635936845           0.02824281261319128          1.0000   
         C         C         1.0       0.9949751970018692  0.2953044549211548  0.019579904621306543         1.0000   
         C         C         1.0       0.9805428573393706  0.2556143586890151  0.010802629764140814         1.0000   
         H         H         1.0       0.6688281703734889  0.41823453868347876           0.892184069787354  1.0000   
         H         H         1.0       0.05981938954678001           0.14956026988003007          0.932880578884745  1.0000   
         H         H         1.0       0.06854546701261821           0.0888597890319458 0.9101465274287659 1.0000   
         H         H         1.0       0.7315417322768475  0.4025688715551491  0.9023524741139487 1.0000   
         H         H         1.0       0.07096078737967004           0.20129520252015917          0.875505528578884  1.0000   
         H         H         1.0       0.025827155658182832          0.22921195856063925          0.8321449953843364 1.0000   
         H         H         1.0       0.030898759126580577          0.33821667466731725          0.8859158390395768 1.0000   
         H         H         1.0       0.5752997491923634  0.4125388171864273  0.8609870117628472 1.0000   
         H         H         1.0       0.6402627034235043  0.39048386208882624           0.9820901523616368 1.0000   
         H         H         1.0       0.04650538650299274           0.2605382296840458 0.010374663193211342         1.0000   
         H         H         1.0       0.9737956486659712  0.2211639236184752  0.9185728976826105 1.0000   
         H         H         1.0       0.020008083651517294          0.21375266880068802          0.9038562996250271 1.0000   
         H         H         1.0       0.9889508232409074  0.1059990684497667  0.9783322929972693 1.0000   
         H         H         1.0       8.350389726530238e-05         0.17385724972412211          0.9999700710171541 1.0000   
         H         H         1.0       0.9033032380367446  0.21424988815199258           0.9309761787380131 1.0000   
         H         H         1.0       0.893185248028111   0.1478551886252795  0.9039622437042666 1.0000   
         H         H         1.0       0.9717848486199313  0.3039257755820774  0.9307702888604757 1.0000   
         H         H         1.0       0.9247122949557144  0.3402456767172908  0.8978628868929832 1.0000   
         H         H         1.0       0.8649092035299965  0.31829824622268854           0.9523687389782812 1.0000   
         H         H         1.0       0.9042179592650603  0.2656054995777129  0.9771416352205237 1.0000   
         H         H         1.0       0.9672290490267828  0.20339212206012475           0.02689194976448217          1.0000   
         H         H         1.0       0.1007741750668465  0.19828365432975328           0.5925956886485149 1.0000   
         H         H         1.0       0.5161332401181224  0.43426352113278727           0.021698015086607292         1.0000   
         H         H         1.0       0.5442764271204742  0.3964282676961208  0.9951704654913797 1.0000   
         C         C         1.0       0.08999366536322273           0.29153767165058225          0.7153789706002116 1.0000   
         C         C         1.0       0.604974993502799   0.3034864420335388  0.7182673175800685 1.0000   
         C         C         1.0       0.6411481816108027  0.302696148191215   0.7350077693886361 1.0000   
         C         C         1.0       0.6561099371208472  0.3115003713599926  0.7663589429450999 1.0000   
         C         C         1.0       0.6322438012089678  0.31053113962083606           0.781177510904875  1.0000   
         C         C         1.0       0.08389070666000586           0.2530784957497846 0.7205317689407826 1.0000   
         H         H         1.0       0.5940486854845922  0.30115735836568913           0.694448272290701  1.0000   
         H         H         1.0       0.6575915392380793  0.29926250641257035           0.7209028146280114 1.0000   
         H         H         1.0       0.09838622752183279           0.20941576359496714          0.7571281390633257 1.0000   
         H         H         1.0       0.06839636681886363           0.23317331259234855          0.7026903418796828 1.0000   
         C         C         1.0       0.715960508481596   0.29208453126435596           0.8320045463880889 1.0000   
         C         C         1.0       0.7164677122725778  0.3272684487953444  0.8174316689354801 1.0000   
         C         C         1.0       0.742263299981939   0.3586003754935871  0.83590860589584   1.0000   
         C         C         1.0       0.7629329731225309  0.35240520594153246           0.8658447505123594 1.0000   
         C         C         1.0       0.757988109761665   0.31918916685063914           0.8797444365994873 1.0000   
         C         C         1.0       0.7360587828531621  0.28941078089502553           0.8633100481704842 1.0000   
         C         C         1.0       0.6968708727730274  0.3323745405503651  0.7818655312450264 1.0000   
         C         C         1.0       0.6860813981925274  0.3768946120057157  0.7717328621351948 1.0000   
         C         C         1.0       0.670153514808346   0.40255738095489835           0.7860317596629496 1.0000   
         C         C         1.0       0.6583753768426656  0.44060656418799143           0.776958722527943  1.0000   
         C         C         1.0       0.6601052547828322  0.453060003034492   0.7507125246746712 1.0000   
         C         C         1.0       0.6716806624962344  0.42777006918945343           0.7330232094468223 1.0000   
         C         C         1.0       0.6831550259308171  0.3906907201360319  0.7422344611719794 1.0000   
         C         C         1.0       0.7235593124607941  0.2777781411291665  0.7554429809192599 1.0000   
         C         C         1.0       0.7370685229963518  0.2725167263918626  0.7328934484946611 1.0000   
         C         C         1.0       0.7557469138037105  0.30186383973302416           0.7264129638021485 1.0000   
         C         C         1.0       0.7652221477843353  0.3353797532769942  0.7461938741054561 1.0000   
         C         C         1.0       0.7519468264364177  0.34190926324194576           0.7688716917470043 1.0000   
         C         C         1.0       0.7267140379713375  0.3160406733013268  0.7707894239766213 1.0000   
         C         C         1.0       0.7651542868794124  0.30105123829842945           0.6960758936232495 1.0000   
         C         C         1.0       0.8761781110242647  0.2497891016573891  0.7398895556433748 1.0000   
         C         C         1.0       0.845852188431118   0.2259229479957301  0.7281535769218693 1.0000   
         C         C         1.0       0.8116476355749763  0.24200424341100477           0.7140443089959979 1.0000   
         C         C         1.0       0.804700705083972   0.2823476087320333  0.711997407820191  1.0000   
         C         C         1.0       0.8356920375458937  0.306305569228139   0.7292643516954476 1.0000   
         C         C         1.0       0.8705681417487684  0.2902191934201432  0.7416332789708143 1.0000   
         C         C         1.0       0.7595269500061139  0.34363085068817617           0.6818152892030284 1.0000   
         C         C         1.0       0.7290349677648964  0.36531192087887776           0.6766785835639402 1.0000   
         C         C         1.0       0.7299722077351155  0.4054106768359147  0.6745527416449955 1.0000   
         C         C         1.0       0.7577324587606741  0.42412783214204014           0.6736577437169894 1.0000   
         C         C         1.0       0.7855571807119227  0.4038313721073642  0.6710094857889493 1.0000   
         C         C         1.0       0.78619504126171    0.36238751631900656           0.6745307915438679 1.0000   
         C         C         1.0       0.7547687872059287  0.254097364028488   0.6452666282659318 1.0000   
         C         C         1.0       0.7347569647061271  0.22553170500716335           0.6239192816265335 1.0000   
         C         C         1.0       0.7023601932269913  0.2121231512297989  0.6227308935936802 1.0000   
         C         C         1.0       0.6856988166744069  0.23465844211639583           0.6376906598580538 1.0000   
         C         C         1.0       0.7045766918573136  0.2646717756873963  0.6585792254454801 1.0000   
         C         C         1.0       0.7400412730494004  0.2726952811457357  0.6659280849413026 1.0000   
         H         H         1.0       0.6983279918375529  0.2663938374254357  0.8225775939647412 1.0000   
         H         H         1.0       0.7499735176462783  0.3831658011161309  0.8250774076262425 1.0000   
         H         H         1.0       0.7841064971867047  0.3722948693658812  0.8784762472436382 1.0000   
         H         H         1.0       0.050071453380865716          0.15129894995387852          0.8104027709055118 1.0000   
         H         H         1.0       0.6659381421207354  0.39489976632042795           0.8065443606284982 1.0000   
         H         H         1.0       0.6463503965151607  0.4582263018292786  0.7896299263717681 1.0000   
         H         H         1.0       0.6691876214011037  0.4375215919877916  0.71001966968003   1.0000   
         H         H         1.0       0.6906847014615575  0.3731890115383373  0.7255486701545474 1.0000   
         H         H         1.0       0.7044923654835283  0.25688919556945916           0.7537854334911622 1.0000   
         H         H         1.0       0.7316216800783033  0.24524851514068358           0.7207973641502906 1.0000   
         H         H         1.0       0.7804014287366398  0.3597040365275657  0.7425171287500574 1.0000   
         H         H         1.0       0.7586651172374154  0.36984858868969234           0.7825438435748517 1.0000   
         H         H         1.0       0.8479515346175164  0.19270719236464048           0.7265006237836538 1.0000   
         H         H         1.0       0.7906976825864914  0.21872119698754086           0.7045322817424648 1.0000   
         H         H         1.0       0.8306476647056856  0.33908627194844726           0.7293340527360666 1.0000   
         H         H         1.0       0.8947988582271224  0.3109941816318797  0.7533544807539705 1.0000   
         H         H         1.0       0.7069285700453924  0.35198996410482414           0.681801085489057  1.0000   
         H         H         1.0       0.7108024682992863  0.42623362553288474           0.6772407752373746 1.0000   
         H         H         1.0       0.8042279180984632  0.4139290447472036  0.6634965986070475 1.0000   
         H         H         1.0       0.810451446932185   0.3482611152473493  0.6741822117299715 1.0000   
         H         H         1.0       0.7817369554486897  0.25732952610001986           0.6477553801115642 1.0000   
         H         H         1.0       0.7514033940611868  0.20596233873482733           0.6164276565645649 1.0000   
         H         H         1.0       0.6587107564855186  0.22943805598764522           0.6346367422002147 1.0000   
         H         H         1.0       0.6916769243387263  0.281917922565749   0.670696862301077  1.0000   
         C         C         1.0       0.666487558109133   0.17860235647948086           0.5681891834342536 1.0000   
         C         C         1.0       0.6865607669773622  0.1745330236527629  0.6041615808151123 1.0000   
         H         H         1.0       0.6644286175362019  0.14905825416890348           0.5566982399867302 1.0000   
         H         H         1.0       0.6872213924445671  0.1944168960359853  0.5634457068142947 1.0000   
         H         H         1.0       0.6670600047388018  0.16134235940753655           0.6122108343914677 1.0000   
         H         H         1.0       0.7055792367521412  0.14999495039160424           0.6089845459915405 1.0000   
         C         C         1.0       0.7750510963489067  0.31381982617925436           0.9142244370260073 1.0000   
         C         C         1.0       0.11431292755233291           0.07610005648266172          0.8784351124065765 1.0000   
         H         H         1.0       0.7640761905675699  0.2880720236239733  0.9211292228395702 1.0000   
         H         H         1.0       0.8037570217587835  0.3073548504215544  0.9194598136767305 1.0000   
         H         H         1.0       0.09931946633910949           0.0491320468813865 0.8810790618921918 1.0000   
         H         H         1.0       0.7878975133225797  0.38081098343529785           0.9346289915199021 1.0000   
         C         C         1.0       0.7585471157792065  0.48670872295105166           0.7090001690128016 1.0000   
         C         C         1.0       0.7586143978319382  0.4715083935693585  0.6778040818650621 1.0000   
         H         H         1.0       0.734524788644975   0.4744684023017541  0.7124783499244455 1.0000   
         H         H         1.0       0.7524536825387446  0.5186937071782004  0.7065327824324852 1.0000   
         H         H         1.0       0.7333559987546626  0.48292714747036036           0.6591926785757205 1.0000   
         H         H         1.0       0.7829691479834061  0.4817622909846165  0.6732454100237496 1.0000   
         C         C         1.0       0.07173385785936359           0.3054311177183521 0.6819233278126673 1.0000   
         C         C         1.0       0.02893141616024364           0.30472425693937966          0.6679926979795994 1.0000   
         H         H         1.0       0.07791660260794142           0.283013595107666  0.6673205711981798 1.0000   
         H         H         1.0       0.08275416114829426           0.33598463254614225          0.680069340752676  1.0000   
         H         H         1.0       0.01995343975526742           0.27549463722876977          0.6692300520363311 1.0000   
         H         H         1.0       0.020658527116131253          0.309124591053841  0.6438866238149525 1.0000   
         C         C         1.0       0.957160781096507   0.29704191214271636           0.8463565890639035 1.0000   
         C         C         1.0       0.9859942849134822  0.296415556363023   0.832148824923083  1.0000   
         H         H         1.0       0.9715820323726341  0.2896377821504194  0.8681687556801251 1.0000   
         H         H         1.0       0.9356857035567672  0.2733732502109606  0.8384678931313292 1.0000   
         H         H         1.0       0.9844676458421553  0.32380113609697303           0.8221517742113772 1.0000   
         H         H         1.0       0.9753273886295708  0.27803125800246825           0.8100122770190791 1.0000   
         C         C         1.0       0.5873898912826634  0.5744024840214508  0.9331692926701937 1.0000   
         C         C         1.0       0.5858938003980142  0.5393547721334716  0.9523768681442358 1.0000   
         H         H         1.0       0.5728812595903269  0.5649976265973824  0.9086975195577134 1.0000   
         H         H         1.0       0.5725957672113631  0.6003237251162612  0.9374779121222792 1.0000   
         H         H         1.0       0.558416714823841   0.5386833545126991  0.952051958129498  1.0000   
         H         H         1.0       0.6045891823392652  0.5456208870667384  0.9771865647405394 1.0000   
         C         C         1.0       0.8852103058235692  0.4081221211912469  0.9223718196504351 1.0000   
         C         C         1.0       0.8663181481505695  0.3669982383281719  0.9090296185152771 1.0000   
         H         H         1.0       0.9126439625502474  0.4101956784354974  0.9209735891244135 1.0000   
         H         H         1.0       0.8947570144994954  0.41003662214140285           0.9482715596058989 1.0000   
         H         H         1.0       0.8415968940114648  0.3633263382519233  0.9125605796825191 1.0000   
         H         H         1.0       0.8561635723779667  0.36511657802649616           0.8836497065293755 1.0000   
         C         C         1.0       0.6526812442237332  0.4975051309638646  0.7423069342029296 1.0000   
         C         C         1.0       0.6875030698062198  0.5216832556353218  0.7471981258773225 1.0000   
         H         H         1.0       0.635960548112726   0.5023150847878772  0.718033578825365  1.0000   
         H         H         1.0       0.6403389681010682  0.5114415243345352  0.7558551390177278 1.0000   
         H         H         1.0       0.677139581275233   0.5491237369925637  0.7354512776201566 1.0000   
         H         H         1.0       0.7005897652385716  0.5022498778344288  0.7343245734509527 1.0000   
         C         C         1.0       0.7768429333173591  0.32205597531701013           0.587082383420786  1.0000   
         C         C         1.0       0.814440283045792   0.301779176909736   0.6058787748725379 1.0000   
         H         H         1.0       0.7551693241083184  0.2994538071749125  0.5789258541925308 1.0000   
         H         H         1.0       0.7677898687302626  0.33773975737383316           0.6043441640749411 1.0000   
         H         H         1.0       0.8829604904482128  0.5483323055970026  0.043571830117592025         1.0000   
         H         H         1.0       0.8681899018129285  0.5048514484197567  0.053979504224235475         1.0000   
         C         C         1.0       0.9340987625651428  0.6288859170294254  0.8619213110961017 1.0000   
         C         C         1.0       0.9641935963313168  0.5953103939696157  0.8744457249366746 1.0000   
         H         H         1.0       0.9303460089297538  0.6367071940538099  0.8376223164855915 1.0000   
         H         H         1.0       0.9472017709957978  0.6578365487302047  0.8745105209196589 1.0000   
         H         H         1.0       0.9710571991489186  0.5976806776593611  0.8993695712462747 1.0000   
         H         H         1.0       0.9892205480919427  0.6053861429545622  0.8721842457790988 1.0000   
         C         C         1.0       0.93028429113851    0.21053200717611706           0.7793645743535216 1.0000   
         C         C         1.0       0.9118225216769591  0.22872169624298355           0.7474875806252569 1.0000   
         H         H         1.0       0.9370362523432302  0.23661584728906632           0.7965053454890808 1.0000   
         H         H         1.0       0.9571389636570212  0.2045905655698636  0.7797076526841974 1.0000   
         H         H         1.0       0.9058719171572432  0.20254760433186403           0.7302259984049647 1.0000   
         H         H         1.0       0.932964691268594   0.2446491758875303  0.7421847292039501 1.0000   
         C         C         1.0       0.9313772819288931  0.0422398191796125  0.9349606907848292 1.0000   
         C         C         1.0       0.9329966337256025  0.08128925610206193           0.92019999600223   1.0000   
         H         H         1.0       0.9252195580330314  0.016182042587057133         0.9175565469876354 1.0000   
         H         H         1.0       0.908456738143096   0.04543678536191176           0.9408359899771142 1.0000   
         H         H         1.0       0.905990019267114   0.08506314147070371           0.9013279276950662 1.0000   
         H         H         1.0       0.9514747379847928  0.07733694867643014           0.9087802464669675 1.0000   
         C         C         1.0       0.16243683368774908           0.1530503075931522 0.6858730799052485 1.0000   
         C         C         1.0       0.7164941177255925  0.04769632612683683           0.6974503547185159 1.0000   
         H         H         1.0       0.15627652059599328           0.1852503077011931 0.6841816086748626 1.0000   
         H         H         1.0       0.15380431313925147           0.14161034678708728          0.7040285376999247 1.0000   
         H         H         1.0       0.7130031397658689  0.015319526956352636         0.6947794755540143 1.0000   
         H         H         1.0       0.7192382716238361  0.06171179260555837           0.6775740659268874 1.0000   
         C         C         1.0       0.6677195721616654  0.1914518793009088  0.8842443163096453 1.0000   
         C         C         1.0       0.6304498959280543  0.1708089602793046  0.8791325612572038 1.0000   
         H         H         1.0       0.6788723749836298  0.21078863392868707           0.9070047457179518 1.0000   
         H         H         1.0       0.6623617312863587  0.2135893510852067  0.8663040489915657 1.0000   
         H         H         1.0       0.6190779821067154  0.15877279187177828           0.8555067630447516 1.0000   
         H         H         1.0       0.6103298686796925  0.19398751554956317           0.8807153350695972 1.0000   
         C         C         1.0       0.933552321323976   0.5831791865338546  0.7485783000585938 1.0000   
         C         C         1.0       0.9295456101995422  0.5831362079031065  0.7146961267309287 1.0000   
         H         H         1.0       0.9573930384901742  0.5631755918031576  0.7613648911365357 1.0000   
         H         H         1.0       0.9103272470360808  0.5667082968232997  0.7505857937054828 1.0000   
         H         H         1.0       0.9541696804828794  0.5980263203200271  0.7149992056057445 1.0000   
         H         H         1.0       0.906214415917371   0.5974826895422412  0.6986804681591862 1.0000   
         C         C         1.0       0.9262295918000222  0.9262957856005941  0.8736956553097374 1.0000   
         C         C         1.0       0.9462950458898268  0.9344873662593007  0.8517757348511481 1.0000   
         H         H         1.0       0.9348907421606231  0.9503118860597448  0.8926253034589186 1.0000   
         H         H         1.0       0.8960880589453033  0.9322378508642729  0.8582530896261376 1.0000   
         H         H         1.0       0.9455616242325482  0.909481066232967   0.835148335104505  1.0000   
         H         H         1.0       0.9761964510325868  0.9381789845595244  0.8669917681396051 1.0000   
         C         C         1.0       0.09127119618082946           0.8754471434575309 0.8223405241471533 1.0000   
         C         C         1.0       0.06371312987727618           0.8528489879629011 0.7916059410864675 1.0000   
         H         H         1.0       0.07779125945029763           0.8993810012609795 0.8295982240171955 1.0000   
         H         H         1.0       0.0982275596768416  0.8525552026281248  0.8397408917079207 1.0000   
         H         H         1.0       0.08011604576154663           0.8398425536136532 0.781460537207999  1.0000   
         H         H         1.0       0.04950176407704299           0.8712492999950054 0.7728006756921959 1.0000   
         C         C         1.0       0.05809384375173954           0.7317462366212869 0.04825269126352705          1.0000   
         C         C         1.0       0.07692343194288642           0.7646352856678489 0.0726503794044715 1.0000   
         H         H         1.0       0.03836196793387514           0.719718622978761  0.0564306080258592 1.0000   
         H         H         1.0       0.07869524087889945           0.7079073475771509 0.05019047914453112          1.0000   
         H         H         1.0       0.05689974321500446           0.7811073584067327 0.07883683209686687          1.0000   
         H         H         1.0       0.09262459072970963           0.7476617953345704 0.09361875832020727          1.0000   
         C         C         1.0       0.7276966587022451  0.8005272714120193  0.9470025291002435 1.0000   
         C         C         1.0       0.7072985017110095  0.8238409697627165  0.9648029128389493 1.0000   
         H         H         1.0       0.7562772898549477  0.810864209387316   0.9566919780893633 1.0000   
         H         H         1.0       0.7162097350591747  0.8109686423342655  0.9224233324533961 1.0000   
         H         H         1.0       0.6913843408792697  0.8020718864748582  0.9713346422271061 1.0000   
         H         H         1.0       0.685956383574734   0.839041631630633   0.9483536159923878 1.0000   
         C         C         1.0       0.8071855261650815  0.09064602442588598           0.0064706106049463585        1.0000   
         C         C         1.0       0.8261525356158888  0.08172118845813947           0.042060454048648444         1.0000   
         H         H         1.0       0.8240502591241723  0.07445804826036517           0.9972008997037507 1.0000   
         H         H         1.0       0.8115589509584694  0.12163738831308035           0.0040414372980936974        1.0000   
         H         H         1.0       0.8176232710800202  0.10489863317270487           0.05522545693412839          1.0000   
         H         H         1.0       0.853643858826308   0.08785599133637789           0.04761551061684677          1.0000   
         C         C         1.0       0.07668739551679282           0.9144225240592231 0.16275348679491453          1.0000   
         C         C         1.0       0.0615386697892113  0.9558201602363453  0.1580645776617493 1.0000   
         H         H         1.0       0.08755570689577441           0.9103916436382646 0.18732097309072837          1.0000   
         H         H         1.0       0.1008966572985317  0.9145936045217652  0.15560978957239335          1.0000   
         H         H         1.0       0.03545110479091762           0.9564870520446493 0.1583785525818242 1.0000   
         H         H         1.0       0.08011833511841271           0.9736225313280855 0.1784268780552829 1.0000   
         C         C         1.0       0.8916078124923783  0.941261569939454   0.964623000094921  1.0000   
         C         C         1.0       0.8664065092878703  0.9710475147698191  0.9722032827085979 1.0000   
         H         H         1.0       0.876155999138202   0.9262430153097592  0.9413965929932652 1.0000   
         H         H         1.0       0.9133687653409749  0.9575558830274497  0.9608608442612446 1.0000   
         H         H         1.0       0.8834859226917781  0.9865642053869006  0.9946465269632437 1.0000   
         H         H         1.0       0.8487948326308049  0.9500183137223569  0.9788271685592552 1.0000   
         C         C         1.0       0.8363652157621484  0.8807076611680107  0.691495634142858  1.0000   
         C         C         1.0       0.8760218205055793  0.8785129567215075  0.7162034378372997 1.0000   
         H         H         1.0       0.81849970795923    0.8657502587024992  0.7005248490846314 1.0000   
         H         H         1.0       0.8275082350251276  0.911513149137972   0.6839774096719988 1.0000   
         H         H         1.0       0.8807324301191536  0.9042516263990934  0.7337193322107    1.0000   
         H         H         1.0       0.8966075348359975  0.8836468192545357  0.7064580827712629 1.0000   
         C         C         1.0       0.8699476725113586  0.6890444498217294  0.9895073482124079 1.0000   
         C         C         1.0       0.9031940827552104  0.6818885177348275  0.01898378632048736          1.0000   
         H         H         1.0       0.8512488253836047  0.7083285841849187  0.9949036434046669 1.0000   
         H         H         1.0       0.8556321247420623  0.6622610630224374  0.9804523594026378 1.0000   
         H         H         1.0       0.9241908036317534  0.664140568093475   0.014376366127494933         1.0000   
         H         H         1.0       0.8921288766143115  0.6625710281707428  0.03256561125514512          1.0000

