data_0
_chemical_formula_sum                   'C1600 H1280'
_cell_length_a                          50.02479229367885
_cell_length_b                          41.3052778777362
_cell_length_c                          56.86201961225016
_cell_angle_alpha                       91.35236480051806
_cell_angle_beta                        109.23548566501844
_cell_angle_gamma                       90.21208783931775
_space_group_name_H-M_alt               'P 1'
_space_group_IT_number                  1
loop_
  _space_group_symop_operation_xyz
         'x, y, z' 
loop_
  _atom_site_type_symbol
  _atom_site_label
  _atom_site_symmetry_multiplicity
  _atom_site_fract_x
  _atom_site_fract_y
  _atom_site_fract_z
  _atom_site_occupancy
         C         C         1.0       0.30131649665727556           0.7685136186690726 0.37608892060559695          1.0000   
         C         C         1.0       0.27363582446105245           0.7726852987836699 0.364042124246856  1.0000   
         C         C         1.0       0.2564241613068508  0.7500889905698966  0.3469071097697769 1.0000   
         C         C         1.0       0.2692759710286905  0.7235337375215236  0.3416969911900111 1.0000   
         C         C         1.0       0.2972153863954808  0.7171917542781044  0.3548101973078692 1.0000   
         C         C         1.0       0.3144267540548465  0.7408883721605378  0.37049469824899156          1.0000   
         H         H         1.0       0.26196580999292246           0.7946245789323394 0.36651525494887205          1.0000   
         H         H         1.0       0.2348356424708671  0.7548123389444237  0.33541960031267737          1.0000   
         H         H         1.0       0.3084670385359153  0.6958861460831623  0.3510518686053198 1.0000   
         H         H         1.0       0.3363858203986079  0.7364862736200855  0.3783416687865024 1.0000   
         C         C         1.0       0.2834976074432027  0.66756436911237    0.3072434235253597 1.0000   
         C         C         1.0       0.26265874513345605           0.6645512914773203 0.317442945069966  1.0000   
         C         C         1.0       0.2498453410187964  0.6349212707691653  0.3151212967138236 1.0000   
         C         C         1.0       0.2556021402631307  0.6104375021164125  0.30078676004696886          1.0000   
         C         C         1.0       0.27518912339360424           0.6145383283459668 0.28851501774211297          1.0000   
         C         C         1.0       0.2900314883039005  0.6438163516819884  0.2917090524852939 1.0000   
         C         C         1.0       0.24745804947135236           0.6948323324472102 0.32764927514526276          1.0000   
         C         C         1.0       0.2276400228574293  0.7060587814556205  0.30001960602647776          1.0000   
         C         C         1.0       0.20165489613458656           0.6916300367011333 0.28832078574936787          1.0000   
         C         C         1.0       0.1850020878775286  0.6974683013324776  0.2642297432584614 1.0000   
         C         C         1.0       0.1952711976874585  0.719115822091997   0.25121149288311234          1.0000   
         C         C         1.0       0.21958218903243926           0.7360365799462631 0.26288151659100506          1.0000   
         C         C         1.0       0.23724707519599592           0.727650886270809  0.2862701408365144 1.0000   
         C         C         1.0       0.24700082361859416           0.670212077582106  0.36950714936468915          1.0000   
         C         C         1.0       0.2363725873451866  0.6633870851070284  0.38769283466355514          1.0000   
         C         C         1.0       0.20883507893371042           0.6719994823213488 0.385358352772452  1.0000   
         C         C         1.0       0.1934432207369425  0.6871417219179917  0.3639975486994599 1.0000   
         C         C         1.0       0.20527665310620372           0.6964859402620092 0.3467803196162084 1.0000   
         C         C         1.0       0.2319920589445854  0.6859488985784217  0.34816567664392706          1.0000   
         C         C         1.0       0.195073577108146   0.6622955835046838  0.40602351681348087          1.0000   
         C         C         1.0       0.1699537527581274  0.5629991406849754  0.38254958927167626          1.0000   
         C         C         1.0       0.19365722827272225           0.5688034495520738 0.4032145371947898 1.0000   
         C         C         1.0       0.20329586578403575           0.5991259397209389 0.40972351230042287          1.0000   
         C         C         1.0       0.18719731950010596           0.6254730817676939 0.397637002198532  1.0000   
         C         C         1.0       0.1628125807368968  0.6194484338041555  0.3776838900920498 1.0000   
         C         C         1.0       0.1538175750182528  0.5881422461008817  0.37071651108742454          1.0000   
         C         C         1.0       0.17019423462098865           0.684810558474858  0.408329205935924  1.0000   
         C         C         1.0       0.17321053551547722           0.7186899719075326 0.40550590322597074          1.0000   
         C         C         1.0       0.15356294759464967           0.7395377153922491 0.40861667189509704          1.0000   
         C         C         1.0       0.13178550683797588           0.7282960496431259 0.4164506171993505 1.0000   
         C         C         1.0       0.13138156912250476           0.6960674188857932 0.42175830270340137          1.0000   
         C         C         1.0       0.14891963086703322           0.6741332064097038 0.41733259289957125          1.0000   
         C         C         1.0       0.21217460641421465           0.6513993683127043 0.45207161955882247          1.0000   
         C         C         1.0       0.22868388492644592           0.6554360312277209 0.4761039450839091 1.0000   
         C         C         1.0       0.250590884751393   0.6775303307601425  0.48156953842097794          1.0000   
         C         C         1.0       0.25382769771042313           0.6974564505632905 0.46323460705592495          1.0000   
         C         C         1.0       0.23803341613572798           0.6896487341941503 0.43877486973732643          1.0000   
         C         C         1.0       0.21743050329700514           0.6662593054692626 0.4332896603732626 1.0000   
         H         H         1.0       0.29306234074648996           0.6907481009970995 0.30602070485521987          1.0000   
         H         H         1.0       0.23333757266981356           0.6315399419434353 0.32262285964363707          1.0000   
         H         H         1.0       0.24238581403896436           0.5875105887906135 0.299274686589588  1.0000   
         H         H         1.0       0.3041461645143304  0.6466277013819504  0.2809740383578188 1.0000   
         H         H         1.0       0.19214234307995118           0.6742121964290393 0.2969461243662795 1.0000   
         H         H         1.0       0.16767107282807095           0.682027181910364  0.2551703908553377 1.0000   
         H         H         1.0       0.22802755054784185           0.752176199006686  0.25255617129757924          1.0000   
         H         H         1.0       0.25875902273745477           0.7376036647032035 0.2926320057906084 1.0000   
         H         H         1.0       0.2673660701800061  0.6623168113461447  0.3699435601596043 1.0000   
         H         H         1.0       0.24818688943357664           0.6475895494707071 0.40331437842973683          1.0000   
         H         H         1.0       0.17019109230626886           0.6901939251262308 0.36040051336857215          1.0000   
         H         H         1.0       0.19103465461530977           0.7094870617558998 0.3307966952583716 1.0000   
         H         H         1.0       0.204741205674247   0.5475644364695118  0.41283194040249627          1.0000   
         H         H         1.0       0.2229494962613081  0.6037607336230412  0.42509902724085   1.0000   
         H         H         1.0       0.1485165031589344  0.6376323945667638  0.3642721911712914 1.0000   
         H         H         1.0       0.13261304345723207           0.5837049672115585 0.3575570211062277 1.0000   
         H         H         1.0       0.18947027955511755           0.7289256970790364 0.3994861925238162 1.0000   
         H         H         1.0       0.15256494752387048           0.762602963441505  0.4006613522349667 1.0000   
         H         H         1.0       0.11599191088271936           0.6880033241094731 0.42933248324292983          1.0000   
         H         H         1.0       0.14899106345215254           0.6496586171583429 0.42325663730618374          1.0000   
         H         H         1.0       0.1940243971145603  0.6357642613508792  0.44708890935416706          1.0000   
         H         H         1.0       0.22412521035784339           0.6413918797405549 0.49051870939738496          1.0000   
         H         H         1.0       0.2711803699732677  0.7152015475908734  0.4678941970041661 1.0000   
         H         H         1.0       0.23872077906799308           0.7078039746432526 0.4250803794343696 1.0000   
         C         C         1.0       0.2376971016732279  0.7922556490153151  0.1855512809488175 1.0000   
         C         C         1.0       0.2665870347220646  0.7958999751470459  0.1963166838601191 1.0000   
         C         C         1.0       0.2840664684994538  0.7703639747514488  0.20406992308355196          1.0000   
         C         C         1.0       0.2713763412599273  0.740044223957689   0.20402454786436516          1.0000   
         C         C         1.0       0.2419261290515169  0.7366606679124579  0.19223268654140982          1.0000   
         C         C         1.0       0.22625104112629013           0.7621837139876033 0.1820032487923201 1.0000   
         H         H         1.0       0.276372079527625   0.8189533222204278  0.19557007139641439          1.0000   
         H         H         1.0       0.3061498420808523  0.7726962296272037  0.21076818881405965          1.0000   
         H         H         1.0       0.23084218783406144           0.7141632339268884 0.1895032262625279 1.0000   
         H         H         1.0       0.2044281905299918  0.758450544754329   0.17261603324533237          1.0000   
         C         C         1.0       0.2565047885172586  0.6769075574934013  0.2291101753849759 1.0000   
         C         C         1.0       0.2788977356184957  0.6780449602706053  0.22035631435327477          1.0000   
         C         C         1.0       0.29151016844471467           0.6485096538632804 0.21933020440776962          1.0000   
         C         C         1.0       0.28183537456702007           0.6200250186325941 0.22344895605242132          1.0000   
         C         C         1.0       0.2592134001730455  0.6192967791462148  0.2328331915003399 1.0000   
         C         C         1.0       0.24671066604168582           0.647971453433529  0.23542181353954145          1.0000   
         C         C         1.0       0.291192311958121   0.7096846052311964  0.21459875568092288          1.0000   
         C         C         1.0       0.3115999931867357  0.7184705987726808  0.2413920610545619 1.0000   
         C         C         1.0       0.3379283273004293  0.70553387044296    0.25012823484040303          1.0000   
         C         C         1.0       0.35633874454139153           0.7110502799916001 0.2737629915357578 1.0000   
         C         C         1.0       0.3463546207967954  0.7242931083153975  0.29206978605881834          1.0000   
         C         C         1.0       0.3193491968699356  0.7362055591647853  0.2838412083106244 1.0000   
         C         C         1.0       0.3026930646519371  0.7347240325998978  0.2589398689258405 1.0000   
         C         C         1.0       0.28482851885108    0.6886980311702288  0.17032098169273188          1.0000   
         C         C         1.0       0.29467354770084714           0.681660834341657  0.15117267108990012          1.0000   
         C         C         1.0       0.32183194206278515           0.6899683453377482 0.1529916736607947 1.0000   
         C         C         1.0       0.3384604097051966  0.7062039420617199  0.17409734488871342          1.0000   
         C         C         1.0       0.3284543435758466  0.7158388378569596  0.1924488694036913 1.0000   
         C         C         1.0       0.30203494308288803           0.7044477480532407 0.19191991479308637          1.0000   
         C         C         1.0       0.33617002553135206           0.677527557381335  0.13301783874136103          1.0000   
         C         C         1.0       0.36453839731275867           0.5818589586210745 0.1618762046797485 1.0000   
         C         C         1.0       0.3376926809796265  0.5859499595447875  0.1449676667355657 1.0000   
         C         C         1.0       0.3272902657651741  0.61620327161644    0.13620008024906763          1.0000   
         C         C         1.0       0.3452743698605016  0.6431080114959724  0.1429370831160214 1.0000   
         C         C         1.0       0.3700431958900275  0.6392432191309446  0.16154920240621473          1.0000   
         C         C         1.0       0.37992207628440366           0.6093235334762979 0.1711802579883594 1.0000   
         C         C         1.0       0.36089543675833147           0.7013138678741554 0.12989538474687776          1.0000   
         C         C         1.0       0.3605603435636502  0.734381345417806   0.13260759483692455          1.0000   
         C         C         1.0       0.3833827402830461  0.7537481620093567  0.1328299451647249 1.0000   
         C         C         1.0       0.40745083624814843           0.7389954773140452 0.1319305332602181 1.0000   
         C         C         1.0       0.40706920375020833           0.7057865916451014 0.1281128792268407 1.0000   
         C         C         1.0       0.3838469785272193  0.6876410795808997  0.12519044085951442          1.0000   
         C         C         1.0       0.32174532134015904           0.6548701488821119 0.0872008165395584 1.0000   
         C         C         1.0       0.3060796604684938  0.6558884762750616  0.06221794352273502          1.0000   
         C         C         1.0       0.2852640166081575  0.6798466173443732  0.053545806978874  1.0000   
         C         C         1.0       0.28000144002218824           0.7011821988181287 0.07113552865308166          1.0000   
         C         C         1.0       0.29522590934425463           0.6982817849228373 0.09589126484246668          1.0000   
         C         C         1.0       0.31664330232159943           0.6755612787722691 0.10418429386470911          1.0000   
         H         H         1.0       0.24598825219578555           0.6962738808488561 0.23402420504803995          1.0000   
         H         H         1.0       0.31252068551963685           0.6470378649691549 0.21712809257368615          1.0000   
         H         H         1.0       0.29125273425201825           0.5982551369211894 0.2202871720505336 1.0000   
         H         H         1.0       0.23101642548946272           0.6494630509367006 0.2444196236498375 1.0000   
         H         H         1.0       0.3458528456341024  0.6897261272461883  0.23839974149351367          1.0000   
         H         H         1.0       0.37740136551971243           0.7019187457301335 0.27764269108554374          1.0000   
         H         H         1.0       0.3103288866387589  0.747773345714794   0.29696855119468646          1.0000   
         H         H         1.0       0.2811052559296836  0.7444554632735702  0.25376330528780344          1.0000   
         H         H         1.0       0.26242850596695966           0.6823912329177672 0.16830574453800512          1.0000   
         H         H         1.0       0.27971077759248686           0.6716164106604232 0.13477961932125626          1.0000   
         H         H         1.0       0.36027363150314    0.7131119696888174  0.17743571350789322          1.0000   
         H         H         1.0       0.3417233379832263  0.7316873982446084  0.2073484922642557 1.0000   
         H         H         1.0       0.32363711247074123           0.5647559249730941 0.1374628003608838 1.0000   
         H         H         1.0       0.30600842295340774           0.6157593642123486 0.1220543097520539 1.0000   
         H         H         1.0       0.38468176933899506           0.6593358191275599 0.1701559678783266 1.0000   
         H         H         1.0       0.4014577527898116  0.6087123907679222  0.18375542639049175          1.0000   
         H         H         1.0       0.3442039381464234  0.7476682258721159  0.1363212304438607 1.0000   
         H         H         1.0       0.38176748231763347           0.7787850558513878 0.13553128527210495          1.0000   
         H         H         1.0       0.4263042396440751  0.6941678085475534  0.12689728687413654          1.0000   
         H         H         1.0       0.3851636676708144  0.661322580317766   0.12198160064022127          1.0000   
         H         H         1.0       0.3353881425466197  0.6348322772529108  0.09325614466998502          1.0000   
         H         H         1.0       0.31138241945144185           0.6393653143315435 0.051013182054650816         1.0000   
         H         H         1.0       0.2665955652939806  0.7211471055888538  0.06443730614114543          1.0000   
         H         H         1.0       0.28904875261160645           0.7148724274681301 0.10802674820327444          1.0000   
         C         C         1.0       0.41743774108172105           0.0077346698690670896        0.397638460742803  1.0000   
         C         C         1.0       0.44072884870807366           0.9974226670809438 0.4147769034071766 1.0000   
         C         C         1.0       0.4415703800372979  0.96544224432463    0.42293430669838733          1.0000   
         C         C         1.0       0.41769760683411145           0.9439917133138089 0.4130446852310823 1.0000   
         C         C         1.0       0.394494463550926   0.9572575332241493  0.39706889399075196          1.0000   
         C         C         1.0       0.3935517958045463  0.9880442154238572  0.38899558506522297          1.0000   
         H         H         1.0       0.4590992030111792  0.014084695130181478         0.42041679580941943          1.0000   
         H         H         1.0       0.4624529039233075  0.9593222266218703  0.43393083069213145          1.0000   
         H         H         1.0       0.3762587453850908  0.9416023789083678  0.3891644780292072 1.0000   
         H         H         1.0       0.37606109597433807           0.9975344238826441 0.3738695233879759 1.0000   
         C         C         1.0       0.3696703327639295  0.895414180856792   0.415867015036491  1.0000   
         C         C         1.0       0.39292434929574366           0.8847113312743801 0.4096271379040319 1.0000   
         C         C         1.0       0.39273225019606267           0.8538669692119981 0.39953880887369375          1.0000   
         C         C         1.0       0.36769101333819887           0.8356787117214158 0.39021206567370587          1.0000   
         C         C         1.0       0.3440091862042681  0.8491291901529803  0.39304982639609864          1.0000   
         C         C         1.0       0.3441693123231723  0.8782072920874023  0.4053063710443211 1.0000   
         C         C         1.0       0.42067455915781843           0.9061833777089174 0.41650631068010896          1.0000   
         C         C         1.0       0.4343876847003076  0.8991120137099071  0.44585822413356835          1.0000   
         C         C         1.0       0.4483803323942194  0.8704409786804034  0.45249899294558676          1.0000   
         C         C         1.0       0.4651534859916577  0.8648118279013967  0.4762552833294407 1.0000   
         C         C         1.0       0.46617688740581054           0.8866536391224047 0.4952908540879084 1.0000   
         C         C         1.0       0.4505339836916982  0.9144498524752583  0.4901093367315271 1.0000   
         C         C         1.0       0.4337487230570877  0.9201072716856744  0.46523288292705   1.0000   
         C         C         1.0       0.42688213690066523           0.8980986987485822 0.3748253121855271 1.0000   
         C         C         1.0       0.43958406238170583           0.884327451103268  0.35901132132670627          1.0000   
         C         C         1.0       0.4626486374740214  0.8652907731432723  0.3671537330684385 1.0000   
         C         C         1.0       0.47862525220567126           0.8706596591989005 0.39317523394403403          1.0000   
         C         C         1.0       0.4676773809044409  0.8875244793141432  0.4085292826295893 1.0000   
         C         C         1.0       0.44015541153914195           0.8976241107914736 0.4000852287524456 1.0000   
         C         C         1.0       0.46786549517577286           0.8410705445760668 0.34795538864475206          1.0000   
         C         C         1.0       0.3965777211449783  0.7746221444611827  0.33724933459460754          1.0000   
         C         C         1.0       0.3941329708010278  0.7979502211975027  0.3202689698807128 1.0000   
         C         C         1.0       0.4163157147718955  0.8202007052381567  0.32200585114631636          1.0000   
         C         C         1.0       0.44142467954978587           0.816072739450934  0.34215583124403587          1.0000   
         C         C         1.0       0.44104645643404167           0.7962760192798235 0.3617057632148127 1.0000   
         C         C         1.0       0.4199768232099651  0.7734621607215273  0.35741747469404983          1.0000   
         C         C         1.0       0.014086293838083137          0.8036512231799345 0.37683351233754425          1.0000   
         C         C         1.0       0.030412534971983488          0.8087352711298725 0.40142801321080857          1.0000   
         C         C         1.0       0.05240900340656435           0.7907099899194014 0.4131014148605167 1.0000   
         C         C         1.0       0.05813825854205038           0.764242848087609  0.39998342368671125          1.0000   
         C         C         1.0       0.041418861004495315          0.7575366236677966 0.3752904304300081 1.0000   
         C         C         1.0       0.02041058618705592           0.7787724915328202 0.363876682529921  1.0000   
         C         C         1.0       0.46846842713466974           0.8414892142278584 0.3027388300269957 1.0000   
         C         C         1.0       0.4753637992296606  0.8546674226759075  0.28396958895878377          1.0000   
         C         C         1.0       0.4878270325305993  0.8854343582100839  0.28726856011993307          1.0000   
         C         C         1.0       0.48808095617170866           0.903609923121387  0.3081053274376103 1.0000   
         C         C         1.0       0.4808614875394314  0.8901622389802086  0.32614259067864043          1.0000   
         C         C         1.0       0.47138061464824105           0.8586940771278895 0.32441697425162697          1.0000   
         H         H         1.0       0.36811050189897665           0.9162585989113518 0.4255903724832733 1.0000   
         H         H         1.0       0.41132584988638715           0.8425988557514287 0.3976069008588654 1.0000   
         H         H         1.0       0.3654987866340884  0.8149315679372189  0.3772104013891666 1.0000   
         H         H         1.0       0.3247132764249207  0.8869106411286585  0.4088368580961888 1.0000   
         H         H         1.0       0.44987543878401764           0.8534524036586576 0.4384622079961306 1.0000   
         H         H         1.0       0.47657655415993616           0.8418563039528207 0.47963793844249214          1.0000   
         H         H         1.0       0.5113218083735139  0.9565451666431903  0.9804792995632765 1.0000   
         H         H         1.0       0.4225619249523769  0.942414797674176   0.4610854433148803 1.0000   
         H         H         1.0       0.4065194832737583  0.9091888610110921  0.36640154225022786          1.0000   
         H         H         1.0       0.427377082689509   0.8851233622118503  0.34023216513035526          1.0000   
         H         H         1.0       0.498165169349946   0.8579753981792384  0.40276253902987974          1.0000   
         H         H         1.0       0.4827356967920091  0.8918406641691836  0.42639081157080616          1.0000   
         H         H         1.0       0.37536438588056364           0.799008585545489  0.30462028515554723          1.0000   
         H         H         1.0       0.415555291329584   0.8389533923788722  0.3085701039658755 1.0000   
         H         H         1.0       0.46029872628541507           0.7916366246820568 0.3768480424530713 1.0000   
         H         H         1.0       0.42138983733821755           0.7555838562868237 0.37242114923871245          1.0000   
         H         H         1.0       0.0271305697631835  0.828681073751295   0.41210989718962465          1.0000   
         H         H         1.0       0.064854904159422   0.7918984423219009  0.431964333858915  1.0000   
         H         H         1.0       0.04341383885896096           0.7365499167751737 0.36399319598260965          1.0000   
         H         H         1.0       0.4852895231427871  0.7782861799418885  0.3365263547043805 1.0000   
         H         H         1.0       0.460786054244668   0.8174695070077362  0.30002754149689104          1.0000   
         H         H         1.0       0.4764105725616046  0.8407179755025093  0.26911656741152085          1.0000   
         H         H         1.0       0.497605140780439   0.9264311435382188  0.31192572756738196          1.0000   
         H         H         1.0       0.4839597074320328  0.9031563929562862  0.34359932422372036          1.0000   
         C         C         1.0       0.08393390577983928           0.9839143989068829 0.14605523920636068          1.0000   
         C         C         1.0       0.062092793706369755          0.9664027417341116 0.13051827245594   1.0000   
         C         C         1.0       0.06511952231861401           0.9331136814232089 0.12878605602751061          1.0000   
         C         C         1.0       0.09061822645183118           0.9180644869624149 0.1386893571902463 1.0000   
         C         C         1.0       0.11277629336034853           0.9378512584707851 0.15424122635476537          1.0000   
         C         C         1.0       0.10957832829292333           0.9693199596006705 0.15727663250216112          1.0000   
         H         H         1.0       0.04116147004416635           0.9754202676954453 0.12055626320328308          1.0000   
         H         H         1.0       0.04750534871624514           0.9197890856907676 0.11700381567450667          1.0000   
         H         H         1.0       0.13289743519706967           0.9251708361720935 0.16218344885383973          1.0000   
         H         H         1.0       0.1266858572102529  0.9814650223492549  0.17057834258037774          1.0000   
         C         C         1.0       0.14362243889467108           0.8821125597852248 0.12963023105625476          1.0000   
         C         C         1.0       0.12308131178435568           0.86384099222737   0.13488330187612557          1.0000   
         C         C         1.0       0.13037815342534403           0.8328974030267238 0.14383982960112843          1.0000   
         C         C         1.0       0.15550177039730628           0.8204147682949036 0.14510076086637222          1.0000   
         C         C         1.0       0.17516526439924193           0.8389542590287191 0.13965220696254166          1.0000   
         C         C         1.0       0.1691184338336984  0.8708521958732411  0.132776490467209  1.0000   
         C         C         1.0       0.09272203186353914           0.8776043053071326 0.1331877715241053 1.0000   
         C         C         1.0       0.07671882758626396           0.865154128196546  0.1060171943061429 1.0000   
         C         C         1.0       0.06794821044751329           0.8335603802362652 0.09955523518141231          1.0000   
         C         C         1.0       0.052116207754791824          0.8246396497196811 0.07603873328876298          1.0000   
         C         C         1.0       0.04847262626329252           0.8464706652753844 0.057498996488146034         1.0000   
         C         C         1.0       0.05919993549459292           0.8779856715901245 0.0636563052569101 1.0000   
         C         C         1.0       0.07481973062398689           0.885728034027033  0.08672689442018194          1.0000   
         C         C         1.0       0.10095568589113062           0.867971057872901  0.1791675220259192 1.0000   
         C         C         1.0       0.09299679520531882           0.8577113686768598 0.1980132933536236 1.0000   
         C         C         1.0       0.06817829475054639           0.839589415086611  0.1931228150955632 1.0000   
         C         C         1.0       0.04925413493420871           0.8369931351246909 0.16831818795037126          1.0000   
         C         C         1.0       0.05555735173755439           0.8531599929412867 0.15048153135530218          1.0000   
         C         C         1.0       0.08294853795522196           0.8660490136468586 0.1551836694183337 1.0000   
         C         C         1.0       0.06360152459077968           0.8162733701843492 0.2139719932347316 1.0000   
         C         C         1.0       0.1279950188664266  0.743491875097503   0.21331129764886242          1.0000   
         C         C         1.0       0.1312085237930332  0.763569853270992   0.23408519109750867          1.0000   
         C         C         1.0       0.11242570315937904           0.7887019250767905 0.232105053162473  1.0000   
         C         C         1.0       0.08629092940187753           0.7894572797568136 0.2135396674204097 1.0000   
         C         C         1.0       0.08154557741875391           0.766837854592156  0.19294482872199847          1.0000   
         C         C         1.0       0.10295820284083286           0.7455022121804287 0.19308767292555842          1.0000   
         C         C         1.0       0.03248753164573952           0.8047487022962596 0.20647689654221993          1.0000   
         C         C         1.0       0.010535032027421514          0.8274376677461809 0.20020254310475358          1.0000   
         C         C         1.0       0.4795973408375152  0.8138076485159522  0.1770026120352322 1.0000   
         C         C         1.0       0.47697720921517783           0.7801155366038083 0.17536467167217823          1.0000   
         C         C         1.0       0.5015118672650114  0.7624076999771198  0.18056717866545985          1.0000   
         C         C         1.0       0.025011076843930013          0.7733170286934256 0.20482912503059103          1.0000   
         C         C         1.0       0.07335402206306336           0.8118367079155833 0.2610749567192588 1.0000   
         C         C         1.0       0.07581736898464132           0.8261524931525075 0.28428916430936474          1.0000   
         C         C         1.0       0.08062878607315346           0.8599963348169433 0.28871649703456637          1.0000   
         C         C         1.0       0.07824306896914822           0.8789636943401276 0.26853968252737104          1.0000   
         C         C         1.0       0.07245105852987974           0.8652323221026775 0.24494013749738744          1.0000   
         C         C         1.0       0.06950768613222114           0.831679529180409  0.24133812081896605          1.0000   
         H         H         1.0       0.1409255565105487  0.9050378901070322  0.12372402035864574          1.0000   
         H         H         1.0       0.1152914350115046  0.8183219056862056  0.15010114921240314          1.0000   
         H         H         1.0       0.1573044917834136  0.796873665600304   0.15217540705071803          1.0000   
         H         H         1.0       0.18305353336760768           0.885602898102226  0.12733215828705122          1.0000   
         H         H         1.0       0.07108751736819938           0.8132032177953488 0.11262939961194429          1.0000   
         H         H         1.0       0.04132725794522791           0.8008331517078882 0.07258188863639586          1.0000   
         H         H         1.0       0.05426358899137436           0.8959575047226526 0.04916436505509522          1.0000   
         H         H         1.0       0.08250841705714727           0.9095267314570228 0.08966103696457688          1.0000   
         H         H         1.0       0.122306967918027   0.8766874938400746  0.1843037232051643 1.0000   
         H         H         1.0       0.1093007103261378  0.8556343717194113  0.21608778941089532          1.0000   
         H         H         1.0       0.029530160930598032          0.8224713994551967 0.16160438148481907          1.0000   
         H         H         1.0       0.04259682474124631           0.8478444299519778 0.13187332716201836          1.0000   
         H         H         1.0       0.14945575713334627           0.7622757483672493 0.2499513655823913 1.0000   
         H         H         1.0       0.1192777630410508  0.8051525103627364  0.24834200439828863          1.0000   
         H         H         1.0       0.06133196055249346           0.7652963215858648 0.17828241819048407          1.0000   
         H         H         1.0       0.10057127885150237           0.7278028622281177 0.17856236509429246          1.0000   
         H         H         1.0       0.01525431175710225           0.8548769671372534 0.20322749102026694          1.0000   
         H         H         1.0       0.4625856672770169  0.829352366008242   0.17309202517952768          1.0000   
         H         H         1.0       0.5025266492062159  0.7372765258271152  0.18074769277148742          1.0000   
         H         H         1.0       0.04096961767119491           0.7550942640398234 0.2092320934666373 1.0000   
         H         H         1.0       0.07203900018236023           0.7848147540174036 0.25924865624522403          1.0000   
         H         H         1.0       0.07532057131262658           0.8098258302719944 0.29796892196316277          1.0000   
         H         H         1.0       0.07452694600574902           0.9052887405049717 0.2699066421231586 1.0000   
         H         H         1.0       0.06865687004846324           0.8830354679111081 0.2302773302163826 1.0000   
         C         C         1.0       0.1711669234411888  0.4726948457378092  0.3624889462043648 1.0000   
         C         C         1.0       0.19814740909185022           0.460754015496078  0.37646695275434006          1.0000   
         C         C         1.0       0.2005261763808     0.42912759156530467           0.3831944404690221 1.0000   
         C         C         1.0       0.17769103128778438           0.4070918825932637 0.3752972220046082 1.0000   
         C         C         1.0       0.1527354449035417  0.4185171970631483  0.35768033899187274          1.0000   
         C         C         1.0       0.1488416042483889  0.451080262279243   0.3529218420647607 1.0000   
         H         H         1.0       0.21702385817723913           0.4754756754854361 0.379275994172806  1.0000   
         H         H         1.0       0.22151943755542194           0.42376032752905857          0.39478601541337066          1.0000   
         H         H         1.0       0.13463437647525506           0.40182935715536067          0.349419278199688  1.0000   
         H         H         1.0       0.1275255061651322  0.4598473607854395  0.34218511223313636          1.0000   
         C         C         1.0       0.13528482418637608           0.3656295743869605 0.3896962956053526 1.0000   
         C         C         1.0       0.15584431135929622           0.3512594587203379 0.3820532877055281 1.0000   
         C         C         1.0       0.15167990072264445           0.3190023947296857 0.37401621724471446          1.0000   
         C         C         1.0       0.12755980041734055           0.30248913385424236          0.36999023851104346          1.0000   
         C         C         1.0       0.10536186347624305           0.31993040038992854          0.3727729918163109 1.0000   
         C         C         1.0       0.10966137434542544           0.35049903573882246          0.38427105980508225          1.0000   
         C         C         1.0       0.18311553469408248           0.3710519256027657 0.3826732346803845 1.0000   
         C         C         1.0       0.20170741910331413           0.36537021446339   0.4108650389538267 1.0000   
         C         C         1.0       0.2173366542925037  0.33682234357091106           0.4196252055576075 1.0000   
         C         C         1.0       0.23219965624277333           0.3343217412732021 0.4443209092535152 1.0000   
         C         C         1.0       0.23011631860327822           0.35805850369384357          0.46114577331269324          1.0000   
         C         C         1.0       0.21194917315140277           0.383501271932474  0.4534693994103743 1.0000   
         C         C         1.0       0.19949518159226007           0.3882190484637198 0.4299147566026949 1.0000   
         C         C         1.0       0.1786870181523251  0.35303211634280607           0.33731470054172746          1.0000   
         C         C         1.0       0.18930783324573805           0.33975362952126986          0.3207561647283932 1.0000   
         C         C         1.0       0.2153637545837399  0.3259810979997929  0.3267336250945226 1.0000   
         C         C         1.0       0.2330568107657813  0.3295292722908667  0.351115190296308  1.0000   
         C         C         1.0       0.2241461793564006  0.346784010814848   0.36844136155097346          1.0000   
         C         C         1.0       0.1965996166498439  0.35800343020735    0.36216949773602747          1.0000   
         C         C         1.0       0.22391368188274807           0.30525059342812927          0.30647695402108804          1.0000   
         C         C         1.0       0.1696725337559196  0.22380043175579695           0.31002385245468544          1.0000   
         C         C         1.0       0.1622934236144356  0.24304404869598048           0.2891999685671756 1.0000   
         C         C         1.0       0.18030419777739454           0.2674000339418885 0.28739384964414577          1.0000   
         C         C         1.0       0.20467642370386688           0.27509383622663997          0.30588572470017134          1.0000   
         C         C         1.0       0.21259022553931625           0.25439908041395837          0.32631543919919237          1.0000   
         C         C         1.0       0.19482682943052815           0.2303893686416307 0.3280636241014191 1.0000   
         C         C         1.0       0.25583603629710894           0.2971731989562995 0.31273920059952703          1.0000   
         C         C         1.0       0.27806207703666946           0.3200545104364514 0.32196239438019414          1.0000   
         C         C         1.0       0.3052908592747569  0.31172789519678074           0.32737148355442713          1.0000   
         C         C         1.0       0.3118670368896167  0.28082103180929713           0.3222818052519255 1.0000   
         C         C         1.0       0.2901729400052345  0.259291152817814   0.30956806530897735          1.0000   
         C         C         1.0       0.26278919688733365           0.2675377542376799 0.30464305453747703          1.0000   
         C         C         1.0       0.2144421078008755  0.3047810712167266  0.25774068003976464          1.0000   
         C         C         1.0       0.20764302918268304           0.3189361869124194 0.235542770040288  1.0000   
         C         C         1.0       0.20351019035119164           0.3524433575418448 0.23479835289025708          1.0000   
         C         C         1.0       0.20884222583825746           0.36923807684649107          0.25712686802174106          1.0000   
         C         C         1.0       0.21734949149736438           0.35513719565675883          0.28000905235683465          1.0000   
         C         C         1.0       0.2187109917612934  0.32162252874217734           0.28075759550009693          1.0000   
         H         H         1.0       0.13994633891775873           0.38990632131725966          0.3998129869730209 1.0000   
         H         H         1.0       0.16606226846115626           0.30437405908254006          0.3681528318234191 1.0000   
         H         H         1.0       0.12373070773404578           0.2791947556346773 0.36154884603043486          1.0000   
         H         H         1.0       0.0918882077973972  0.365000506193309   0.3846565592339107 1.0000   
         H         H         1.0       0.2168002277798931  0.3182747200720685  0.40607674971324464          1.0000   
         H         H         1.0       0.2475931319243414  0.3148386403966274  0.45172712800734427          1.0000   
         H         H         1.0       0.21174883601605107           0.40142172497515966          0.46837962637428593          1.0000   
         H         H         1.0       0.1884062738828556  0.41061368882272614           0.42565412449209195          1.0000   
         H         H         1.0       0.156495490412395   0.362663095328507   0.3312112556934638 1.0000   
         H         H         1.0       0.17608917841982913           0.33881586543722614          0.3017510129973748 1.0000   
         H         H         1.0       0.2535165337126666  0.3193085471110231  0.357583789488824  1.0000   
         H         H         1.0       0.24006116433781532           0.34815048873361315          0.38586586111699356          1.0000   
         H         H         1.0       0.1432234051514518  0.23763616066895293           0.2739554298960594 1.0000   
         H         H         1.0       0.1729885881018972  0.28107438822787373           0.27070613290879825          1.0000   
         H         H         1.0       0.23240362217118363           0.2590233283143292 0.3405304555833225 1.0000   
         H         H         1.0       0.2014017384891687  0.21485460351655267           0.34342184764260797          1.0000   
         H         H         1.0       0.2762263514682795  0.34603347715732763           0.32678633447354505          1.0000   
         H         H         1.0       0.3227477159466617  0.3278276396689137  0.33752073790860326          1.0000   
         H         H         1.0       0.2951981292021363  0.23417839275065191           0.30503421928467256          1.0000   
         H         H         1.0       0.24641757600820935           0.24960121538533192          0.29379956781943756          1.0000   
         H         H         1.0       0.21212358332445502           0.2789396118427769 0.2573121849007341 1.0000   
         H         H         1.0       0.2048593455384374  0.30506574424946475           0.2184297243800001 1.0000   
         H         H         1.0       0.20857647155681291           0.3957708000923864 0.25874027433470714          1.0000   
         H         H         1.0       0.22355492509404443           0.3708230034542209 0.296614991505623  1.0000   
         C         C         1.0       0.3849206544945474  0.5000770005885334  0.13826200755953766          1.0000   
         C         C         1.0       0.3795195928859456  0.4944674197083646  0.11299809507450224          1.0000   
         C         C         1.0       0.36846580477687385           0.4652430266983143 0.10341089674048046          1.0000   
         C         C         1.0       0.36107208182015416           0.44123608431779765          0.11658152723397136          1.0000   
         C         C         1.0       0.36875262558269545           0.4472251495386835 0.14201177537884346          1.0000   
         C         C         1.0       0.38018375430492457           0.47635268530072905          0.15247860883370123          1.0000   
         H         H         1.0       0.3847911813593012  0.513948414217052   0.10351290095139289          1.0000   
         H         H         1.0       0.36156578069390544           0.46333230351351545          0.08420449550560041          1.0000   
         H         H         1.0       0.3622849707871676  0.43153287626057973           0.1540395013774029 1.0000   
         H         H         1.0       0.3882237940709054  0.4819365927884009  0.17185946171182345          1.0000   
         C         C         1.0       0.39382679265888193           0.38809806938928515          0.09495413770532218          1.0000   
         C         C         1.0       0.3765510929500387  0.38683039761823634           0.10963326053286367          1.0000   
         C         C         1.0       0.3860817775609242  0.36643868097830273           0.13068462780730997          1.0000   
         C         C         1.0       0.4098341297953262  0.34880958934682493           0.13585176922039094          1.0000   
         C         C         1.0       0.4267479222430298  0.3528673574554301  0.12133715483832022          1.0000   
         C         C         1.0       0.4183778234929451  0.37179618327275177           0.10113043261606604          1.0000   
         C         C         1.0       0.34769631068140955           0.40693631971837047          0.10470326983113722          1.0000   
         C         C         1.0       0.32736079136545077           0.41351317041368635          0.07665394020200335          1.0000   
         C         C         1.0       0.3264654447513358  0.39116017245548196           0.05727595090733552          1.0000   
         C         C         1.0       0.3090446318257276  0.39351093384556535           0.03293463173274935          1.0000   
         C         C         1.0       0.29117548392192744           0.41859413791473893          0.027451218078945815         1.0000   
         C         C         1.0       0.29010070419303713           0.4404512522813212 0.04601628500006046          1.0000   
         C         C         1.0       0.3068914306165254  0.43651303259128743           0.07028063413810849          1.0000   
         C         C         1.0       0.3138754337780124  0.3998632701651017  0.13047647931903433          1.0000   
         C         C         1.0       0.3012772532464404  0.37971305706480857           0.1437119374637866 1.0000   
         C         C         1.0       0.2980739211163821  0.34584807252267497           0.13923272274049792          1.0000   
         C         C         1.0       0.30802431087275917           0.33374254556410127          0.12063981546638108          1.0000   
         C         C         1.0       0.3220522192869297  0.3531173155304145  0.10939945199073435          1.0000   
         C         C         1.0       0.32736316249141223           0.3859216415798284 0.11514238995102771          1.0000   
         C         C         1.0       0.2852790366679481  0.3198094087149154  0.15375598309428085          1.0000   
         C         C         1.0       0.3671539506177718  0.27960613613236557           0.20170229498595701          1.0000   
         C         C         1.0       0.36126107369702615           0.31102371944517465          0.20505920207036493          1.0000   
         C         C         1.0       0.33541875089530254           0.3227699446708913 0.18968601120027725          1.0000   
         C         C         1.0       0.31504700557138055           0.30469664532153123          0.17171071491204656          1.0000   
         C         C         1.0       0.32305358653874433           0.2726450434553421 0.17039637305947747          1.0000   
         C         C         1.0       0.3479077346324229  0.2590248949114828  0.18557902683796929          1.0000   
         C         C         1.0       0.26145625180987414           0.29385137859011673          0.13928222239997504          1.0000   
         C         C         1.0       0.2470296295216507  0.29717821781623266           0.11355701075492439          1.0000   
         C         C         1.0       0.2263960262064173  0.2744909114468382  0.1012158787309938 1.0000   
         C         C         1.0       0.21733019007984286           0.25166435600942294          0.11434836505494989          1.0000   
         C         C         1.0       0.2312195847701724  0.2499994755360458  0.13895335765363478          1.0000   
         C         C         1.0       0.25319296631272753           0.26945506248081674          0.15249308930346128          1.0000   
         C         C         1.0       0.2734243605542378  0.3370861182739351  0.19410648299455918          1.0000   
         C         C         1.0       0.2567977361055476  0.35456740767017175           0.20531698405007526          1.0000   
         C         C         1.0       0.23366003617900394           0.371092869425729  0.19169756468758412          1.0000   
         C         C         1.0       0.22650345979992234           0.37366955697228266          0.1663081520626736 1.0000   
         C         C         1.0       0.2433016720880206  0.3595295264320646  0.1542711328901906 1.0000   
         C         C         1.0       0.266741040327175   0.3403642198215862  0.16800116122392697          1.0000   
         H         H         1.0       0.38580538378812784           0.4036638239062141 0.07895498058939036          1.0000   
         H         H         1.0       0.37395165216512094           0.3651195040541461 0.14316584657635792          1.0000   
         H         H         1.0       0.41551814169101103           0.33272923999899684          0.15047526189371582          1.0000   
         H         H         1.0       0.4347686051781712  0.37703651354249834           0.09245733899676438          1.0000   
         H         H         1.0       0.33844258108674546           0.37030649036316754          0.06280151495595367          1.0000   
         H         H         1.0       0.3116086969168975  0.3782444573333852  0.01823842655601494          1.0000   
         H         H         1.0       0.27499368604764335           0.4594149553474318 0.0395784816002351 1.0000   
         H         H         1.0       0.3055354965041452  0.4540708642314995  0.08392728881260514          1.0000   
         H         H         1.0       0.3115314296451831  0.4247641126639093  0.13537780127470986          1.0000   
         H         H         1.0       0.2978420590188897  0.39317619437722795           0.15884008200258704          1.0000   
         H         H         1.0       0.3051137966835527  0.307215245506093   0.11453568133444622          1.0000   
         H         H         1.0       0.3297936868129889  0.34174349296532436           0.09692702873861964          1.0000   
         H         H         1.0       0.3743946930089005  0.3270342475906104  0.21971774470300953          1.0000   
         H         H         1.0       0.3287399235970914  0.3478087839137475  0.19144116321312027          1.0000   
         H         H         1.0       0.3084425783389975  0.2576304891676443  0.1572071203758261 1.0000   
         H         H         1.0       0.3521836859086176  0.23287538595277027           0.18410271708734552          1.0000   
         H         H         1.0       0.25257732973243746           0.3165147716032687 0.10303742042683639          1.0000   
         H         H         1.0       0.21602209539441916           0.27802747830923036          0.08162219988267358          1.0000   
         H         H         1.0       0.22542420594769255           0.2327923465987132 0.1504847095055304 1.0000   
         H         H         1.0       0.26122942127831905           0.2650153842500059 0.17252349999425104          1.0000   
         H         H         1.0       0.29197589729309686           0.32425819060558825          0.20647358766606522          1.0000   
         H         H         1.0       0.26167463274637    0.3518191944227635  0.22550114628771017          1.0000   
         H         H         1.0       0.20615231106347873           0.38497409240589514          0.15560487775329856          1.0000   
         H         H         1.0       0.2392215198506408  0.3587946439160938  0.13530921257608972          1.0000   
         C         C         1.0       0.050905277230106606          0.2541223050195882 0.36819668206308065          1.0000   
         C         C         1.0       0.023035941642256034          0.2634488471430793 0.3575137068376655 1.0000   
         C         C         1.0       0.004512810701258304          0.24194144817979665          0.34204223403091244          1.0000   
         C         C         1.0       0.012368243518575833          0.21001725452271472          0.33854484522296036          1.0000   
         C         C         1.0       0.04037230721837041           0.2004777920183752 0.35093725289930533          1.0000   
         C         C         1.0       0.05929712223195456           0.22301603566551867          0.36401600232956755          1.0000   
         H         H         1.0       0.01758786438626936           0.2872585817703264 0.36339034444367707          1.0000   
         H         H         1.0       0.49206645827880924           0.26870942028468475          0.3099720558011792 1.0000   
         H         H         1.0       0.04682879305828642           0.17623779672794032          0.3486138832397283 1.0000   
         H         H         1.0       0.07987383069412483           0.21580969231033717          0.37238253193903825          1.0000   
         C         C         1.0       0.017766992619039964          0.15134169866172265          0.3024143679391671 1.0000   
         C         C         1.0       0.5122524178403217  0.17122214540711442           0.29459008736639086          1.0000   
         C         C         1.0       0.49576295023185685           0.14331764661060847          0.29303824321371835          1.0000   
         C         C         1.0       0.5009719706038951  0.1164746093402678  0.28137553561165707          1.0000   
         C         C         1.0       0.0016601116627833073         0.09992014253997711          0.28246621774384945          1.0000   
         C         C         1.0       0.021237253324195335          0.12503026383006668          0.2885475830812502 1.0000   
         C         C         1.0       0.5015027664736615  0.20409449440861613           0.3035152877410663 1.0000   
         C         C         1.0       0.479700938654988   0.21418504547264972           0.277133938538762  1.0000   
         C         C         1.0       0.45365657199787507           0.1986827244203104 0.26825080199633666          1.0000   
         C         C         1.0       0.433384071452632   0.20713038657443858           0.24698911248568942          1.0000   
         C         C         1.0       0.43770237222682157           0.23182695225527988          0.23272568850190217          1.0000   
         C         C         1.0       0.4642528636316286  0.24529214563276788           0.23904264913157572          1.0000   
         C         C         1.0       0.48521495377563517           0.23697853717110995          0.2605421196021834 1.0000   
         C         C         1.0       0.5059482057832677  0.18440952069364272           0.34804901264445237          1.0000   
         C         C         1.0       0.4963150215228996  0.1847034300668421  0.3675652109715782 1.0000   
         C         C         1.0       0.47038866855222233           0.19914861230563727          0.3669120117787901 1.0000   
         C         C         1.0       0.4552823713808916  0.212163494296427   0.34484482050891296          1.0000   
         C         C         1.0       0.46414377788248684           0.21409291419626872          0.32499406523319574          1.0000   
         C         C         1.0       0.4896852871094341  0.19855305643175808           0.32558136945452365          1.0000   
         C         C         1.0       0.4564997957772946  0.1923128906118398  0.3881108216871595 1.0000   
         C         C         1.0       0.4392636907991375  0.08714073210770684           0.3738943048144888 1.0000   
         C         C         1.0       0.46320942440169227           0.0982987358740028 0.3915159249458721 1.0000   
         C         C         1.0       0.4679036485574027  0.13113605763908634           0.39654444826663415          1.0000   
         C         C         1.0       0.4490164649559981  0.15353245042882063           0.3837463568507577 1.0000   
         C         C         1.0       0.42670428110910424           0.1431508157509958 0.36348181072109403          1.0000   
         C         C         1.0       0.4213544362900316  0.11036775237563913           0.3600848958999032 1.0000   
         C         C         1.0       0.42872693238671816           0.2146805530106556 0.3859553972330021 1.0000   
         C         C         1.0       0.42955095940377097           0.24596652421054654          0.3798628056937342 1.0000   
         C         C         1.0       0.4056158418848523  0.26431577506161025           0.37093366744980993          1.0000   
         C         C         1.0       0.38004599741373035           0.2515770711927799 0.3689397055108197 1.0000   
         C         C         1.0       0.37902509190817707           0.2203654472341918 0.37805410226629815          1.0000   
         C         C         1.0       0.4031647085726174  0.2029340023485705  0.3870454830761838 1.0000   
         C         C         1.0       0.466139013322252   0.18754560621567853           0.43562686587725513          1.0000   
         C         C         1.0       0.4814816433767572  0.19210951364558324           0.4599171676115836 1.0000   
         C         C         1.0       0.503709956079823   0.21294866994817152           0.4668084927970048 1.0000   
         C         C         1.0       0.9956023729776459  0.18882908377706514           0.4637047841553094 1.0000   
         C         C         1.0       0.49693385337308393           0.22011571079256922          0.42361177777413844          1.0000   
         C         C         1.0       0.47429662851203963           0.19964127589035072          0.41653967819025944          1.0000   
         H         H         1.0       0.02822568828013239           0.17372574660070458          0.3019351423716983 1.0000   
         H         H         1.0       0.48006821786463894           0.14285500497719678          0.3032197091585087 1.0000   
         H         H         1.0       0.48822060415021157           0.09412192447069778          0.28126004449794934          1.0000   
         H         H         1.0       0.03700837779008991           0.12906833440631213          0.28066488893907016          1.0000   
         H         H         1.0       0.4498825546608088  0.17900934020831202           0.2789193692768109 1.0000   
         H         H         1.0       0.41326925626374705           0.19195863126662716          0.24071586092884334          1.0000   
         H         H         1.0       0.46993538205539387           0.2644438926625503 0.229202252415793  1.0000   
         H         H         1.0       0.9962524735096522  0.2309012921949951  0.2918083436780952 1.0000   
         H         H         1.0       0.006276713270893911          0.1494449267367367 0.3654398889884253 1.0000   
         H         H         1.0       0.5089431365661162  0.17354221247208004           0.384006580517038  1.0000   
         H         H         1.0       0.4352793957678425  0.22386839802186942           0.3415765224469813 1.0000   
         H         H         1.0       0.450305061106943   0.22570574645168834           0.3085372107455339 1.0000   
         H         H         1.0       0.47817087754182014           0.07974842865140484          0.40194511640835034          1.0000   
         H         H         1.0       0.4881368817824041  0.13590803247262445           0.41140565783356514          1.0000   
         H         H         1.0       0.41370789836938054           0.15887162828668927          0.35041025529330466          1.0000   
         H         H         1.0       0.40192400611574086           0.10290986510222108          0.3449251898800271 1.0000   
         H         H         1.0       0.4495225340313817  0.2565767313636402  0.3812194809280301 1.0000   
         H         H         1.0       0.40747987220395443           0.2896998609498286 0.36787335106817215          1.0000   
         H         H         1.0       0.35946288582783986           0.2093883050042032 0.3791361221752851 1.0000   
         H         H         1.0       0.4001765192608001  0.1782059518492454  0.39155311997973286          1.0000   
         H         H         1.0       0.44643610995961286           0.17439682394758138          0.43062276666418303          1.0000   
         H         H         1.0       0.4765511437438886  0.16175546767153434           0.9722649589414372 1.0000   
         H         H         1.0       0.010608749399054037          0.209739630937422  0.4689581646909728 1.0000   
         H         H         1.0       0.9816065170272703  0.20493122462446314           0.42632831413948097          1.0000   
         C         C         1.0       0.4782081557050638  0.28455732062161193           0.1396674935196521 1.0000   
         C         C         1.0       0.016393226845663824          0.28787539616346103          0.19817026644676575          1.0000   
         C         C         1.0       0.030794996077450374          0.2595987045714343 0.20512046311115087          1.0000   
         C         C         1.0       0.01724323731484222           0.22894401241436604          0.1996223784648291 1.0000   
         C         C         1.0       0.9890055687624647  0.22861106327769692           0.184376955182469  1.0000   
         C         C         1.0       0.46779795739058794           0.25382838320843226          0.14048587995374143          1.0000   
         H         H         1.0       0.02881332121657542           0.3097926672434738 0.20454934246373055          1.0000   
         H         H         1.0       0.05355972767216447           0.26212997982745684          0.216602393180099  1.0000   
         H         H         1.0       0.47624244596460164           0.20714496106483238          0.15384909650009634          1.0000   
         H         H         1.0       0.4468944897131945  0.24790847103390745           0.12861770151608526          1.0000   
         C         C         1.0       0.997736250516482   0.17022453442441998           0.22450297429088217          1.0000   
         C         C         1.0       0.01870482979467787           0.16708548804381831          0.2134233056680911 1.0000   
         C         C         1.0       0.026405571326406144          0.13536795807825885          0.20940855277745551          1.0000   
         C         C         1.0       0.013991357267464833          0.10865714920635106          0.2156562731982471 1.0000   
         C         C         1.0       0.993908747936804   0.11418541603104466           0.22733399201069784          1.0000   
         C         C         1.0       0.9853373267950085  0.1447723316593907  0.23090175864186058          1.0000   
         C         C         1.0       0.03589005916191457           0.19750763570637006          0.20875390219361137          1.0000   
         C         C         1.0       0.06001745267191404           0.19783341336064647          0.23584334806098528          1.0000   
         C         C         1.0       0.08148516830071202           0.17635209292586534          0.24316624351635654          1.0000   
         C         C         1.0       0.10128877933742238           0.17504176991168555          0.2668490851246589 1.0000   
         C         C         1.0       0.10061255644058097           0.19849526418617683          0.28450827644104076          1.0000   
         C         C         1.0       0.07790407265290923           0.21944374298341096          0.2781784646085155 1.0000   
         C         C         1.0       0.057756614213327735          0.2181862555214398 0.25482842596268107          1.0000   
         C         C         1.0       0.029125971514172986          0.17863812763076828          0.16354898417191213          1.0000   
         C         C         1.0       0.036556303451633514          0.1750236458687674 0.14291496832750214          1.0000   
         C         C         1.0       0.06443673913533858           0.179278440289443  0.14416069826250338          1.0000   
         C         C         1.0       0.08447032942463338           0.1875684712277519 0.16695699603200695          1.0000   
         C         C         1.0       0.0757515028808072  0.1937494208500716  0.18744835876940333          1.0000   
         C         C         1.0       0.04791079073662368           0.19023631433598584          0.18643640333266864          1.0000   
         C         C         1.0       0.07174186406861323           0.1757094914963852 0.1180347752872135 1.0000   
         C         C         1.0       0.08428179121865177           0.07184608406673137          0.12191883318352036          1.0000   
         C         C         1.0       0.058040448210372894          0.08265478068145468          0.11049122767412564          1.0000   
         C         C         1.0       0.054713637764361375          0.11572814793689826          0.10841517094004999          1.0000   
         C         C         1.0       0.07632278472605253           0.13721370603595187          0.11873518722644588          1.0000   
         C         C         1.0       0.10300764143857485           0.12413368225659265          0.13028403194418145          1.0000   
         C         C         1.0       0.10705524632423222           0.091909704202921  0.1304205549115273 1.0000   
         C         C         1.0       0.09724857029090668           0.19699928827379334          0.11551327829671035          1.0000   
         C         C         1.0       0.10521864903047604           0.22755007670464236          0.12718953515953443          1.0000   
         C         C         1.0       0.12759092582460374           0.24550819615178676          0.12330645979711202          1.0000   
         C         C         1.0       0.13995750822279612           0.23219184009328672          0.10778391849865344          1.0000   
         C         C         1.0       0.132000975101477   0.20313272615354527           0.09568836614132346          1.0000   
         C         C         1.0       0.1108793969202076  0.1849772858078813  0.09957194942866854          1.0000   
         C         C         1.0       0.04365919772804563           0.17787844923693388          0.07132112769818472          1.0000   
         C         C         1.0       0.0309098289580575  0.19455088550881333           0.05077299801323811          1.0000   
         C         C         1.0       0.020139783844379356          0.22457939682347008          0.05144409188155412          1.0000   
         C         C         1.0       0.019556476906586778          0.23642507608417088          0.07485982198425757          1.0000   
         C         C         1.0       0.03364698305168166           0.2187680073053249 0.09635532382059137          1.0000   
         C         C         1.0       0.04823218557159894           0.19063749926468687          0.09516467708330867          1.0000   
         H         H         1.0       0.9930616426364872  0.19457539037559232           0.2298473437170699 1.0000   
         H         H         1.0       0.04278211359551829           0.13220083736281268          0.20146783505132768          1.0000   
         H         H         1.0       0.017778025789504662          0.08509126183139258          0.20847283414034307          1.0000   
         H         H         1.0       0.47389355146169043           0.15581570944815534          0.22187255256496966          1.0000   
         H         H         1.0       0.08257468970487221           0.15829918372436477          0.23131543949090755          1.0000   
         H         H         1.0       0.11578890311080578           0.1550164059905483 0.27112165569273716          1.0000   
         H         H         1.0       0.07586132082402247           0.23696682060810803          0.29292685977024246          1.0000   
         H         H         1.0       0.03915648751790859           0.2318893265940121 0.25091699652755767          1.0000   
         H         H         1.0       0.006736228216807303          0.1737163207461414 0.16041265922031933          1.0000   
         H         H         1.0       0.020646555847286918          0.16707698666574938          0.12599179227244506          1.0000   
         H         H         1.0       0.10649712981461266           0.1922202968830476 0.16671238952943215          1.0000   
         H         H         1.0       0.09250246995656641           0.19985486538372668          0.20478910072989281          1.0000   
         H         H         1.0       0.04073399079018476           0.06684129748226435          0.1022234176078454 1.0000   
         H         H         1.0       0.03406769472805427           0.1238037091674951 0.10092854482964722          1.0000   
         H         H         1.0       0.12133146428621461           0.13803821917149928          0.13877850959217267          1.0000   
         H         H         1.0       0.12602505582219323           0.08093258868753204          0.1379118197725046 1.0000   
         H         H         1.0       0.09526923714868796           0.2361390945035266 0.13986019499191257          1.0000   
         H         H         1.0       0.13297966535680636           0.2684172754327772 0.13443729302128354          1.0000   
         H         H         1.0       0.14232862513707475           0.19323560587868535          0.08250154572412298          1.0000   
         H         H         1.0       0.1051036132094409  0.16185258094609004           0.08818443409095245          1.0000   
         H         H         1.0       0.051663067814626366          0.1549072791969451 0.06872776892372194          1.0000   
         H         H         1.0       0.030184534370921726          0.18463503835203335          0.03375069478178645          1.0000   
         H         H         1.0       0.007254010328710949          0.25877769008627005          0.07519322046779969          1.0000   
         H         H         1.0       0.03567651922502876           0.22923424589538846          0.11329025998931132          1.0000   
         C         C         1.0       0.021094714958580882          0.2454547161087817 0.008415980942281142         1.0000   
         C         C         1.0       0.004388550183871939          0.24319312242349717          0.027117334820976665         1.0000   
         H         H         1.0       0.041709653382923935          0.23341596512921226          0.015515684946124732         1.0000   
         H         H         1.0       0.024810836882677823          0.27154502452447243          0.006529014010501433         1.0000   
         H         H         1.0       0.0021907274395548265         0.27018364877746404          0.03260830255431388          1.0000   
         H         H         1.0       0.9826982934129781  0.23448461420601924           0.01856542281940989          1.0000   
         C         C         1.0       0.9828457249938386  0.0837900872659562  0.23575839840279658          1.0000   
         C         C         1.0       0.5179538340168918  0.08867601269460773           0.2490053733631518 1.0000   
         H         H         1.0       0.9611471899497029  0.08909189710316398           0.23514654576830984          1.0000   
         H         H         1.0       0.9820721146793245  0.06382424175037417           0.22220978225606713          1.0000   
         H         H         1.0       0.5106026444017887  0.06612342145834446           0.2565317079383204 1.0000   
         H         H         1.0       0.02229777475827433           0.06742937055073159          0.2616715731386332 1.0000   
         C         C         1.0       0.18870923036120502           0.2334083166440853 0.10116127844387293          1.0000   
         C         C         1.0       0.1616714363133434  0.2533943617097976  0.10042499885836965          1.0000   
         H         H         1.0       0.1871185293117244  0.22684968513321252           0.08125329625760486          1.0000   
         H         H         1.0       0.18804749725261888           0.20981571959782677          0.11054086476071853          1.0000   
         H         H         1.0       0.16546888332211282           0.27540296015764515          0.11218537627100718          1.0000   
         H         H         1.0       0.15161044991487524           0.2666258736095046 0.08368062387845512          1.0000   
         C         C         1.0       0.4590912019069522  0.30703284225304417           0.12042558977308432          1.0000   
         C         C         1.0       0.4575660026236103  0.34079411456569414           0.13098180816546837          1.0000   
         H         H         1.0       0.4380995690066647  0.29728598527349914           0.1128653386163094 1.0000   
         H         H         1.0       0.4672350881465823  0.30667770932938965           0.10411398220684275          1.0000   
         H         H         1.0       0.4725297489219151  0.3556325178901649  0.1243371030145842 1.0000   
         H         H         1.0       0.4630207053345871  0.34042741616183725           0.15019479420147902          1.0000   
         C         C         1.0       0.39365905588232536           0.2654043482008453 0.22032563304056665          1.0000   
         C         C         1.0       0.412967404222091   0.24168380088117658           0.21051295252067054          1.0000   
         H         H         1.0       0.40665608190401104           0.28714305959220837          0.2280589305895285 1.0000   
         H         H         1.0       0.38895585433031726           0.25443284889428347          0.23722953887573056          1.0000   
         H         H         1.0       0.42068857674812166           0.25557601409079395          0.19772468667640963          1.0000   
         H         H         1.0       0.4001091318769163  0.2211754141897555  0.19967588906424688          1.0000   
         C         C         1.0       0.07601777706936816           0.30452329865941075          0.36328346066960926          1.0000   
         C         C         1.0       0.07267966422654511           0.27861624954780123          0.38069949255418184          1.0000   
         H         H         1.0       0.07335403900708809           0.2948931695804239 0.3440933032615317 1.0000   
         H         H         1.0       0.05893587077201948           0.3242673087650311 0.35774210324823674          1.0000   
         H         H         1.0       0.06782462788324801           0.2914074366695778 0.3952611912183823 1.0000   
         H         H         1.0       0.09206381848929612           0.26557066633238985          0.3917957038785792 1.0000   
         C         C         1.0       0.3421419133667381  0.27030080399239703           0.32857143524364796          1.0000   
         C         C         1.0       0.3548054400663631  0.27301838624098435           0.3579772122971936 1.0000   
         H         H         1.0       0.3438877253488264  0.24482956654481497           0.3220320356884483 1.0000   
         H         H         1.0       0.3521812818797945  0.28786927183647365           0.31948856566290473          1.0000   
         H         H         1.0       0.36018099858839436           0.2988044169256318 0.36300385377406863          1.0000   
         H         H         1.0       0.33914216918999657           0.264851735169353  0.3671165546393771 1.0000   
         C         C         1.0       0.12078106876421112           0.19897566192210508          0.3109814859353796 1.0000   
         C         C         1.0       0.15304963997718593           0.19506504517524642          0.3136419076056179 1.0000   
         H         H         1.0       0.11622993179944192           0.22009429585112558          0.32321634610152494          1.0000   
         H         H         1.0       0.1153348671377383  0.17795615269088072           0.31981392099980416          1.0000   
         H         H         1.0       0.15607559608564978           0.17455446442479994          0.3027970186715949 1.0000   
         H         H         1.0       0.16295915294772562           0.18489995754742952          0.3322958308923031 1.0000   
         C         C         1.0       0.24078243415763886           0.4148271017656395 0.9991844364139967 1.0000   
         C         C         1.0       0.27182864973668    0.42336263785339484           0.0011509263340934162        1.0000   
         H         H         1.0       0.2415781476979694  0.391825430208998   0.008848509165672255         1.0000   
         H         H         1.0       0.2320717345243528  0.43177115553244716           0.008774078046182665         1.0000   
         H         H         1.0       0.2720618818567521  0.40762958159374896           0.4867429344450408 1.0000   
         H         H         1.0       0.28826934905303564           0.37091972345801255          0.4818090203175645 1.0000   
         C         C         1.0       0.1944790549692515  0.37308937359615807           0.2119501534824819 1.0000   
         C         C         1.0       0.21709749969303554           0.39074126484613597          0.20577294695863133          1.0000   
         H         H         1.0       0.1859788452021001  0.35541046196642384           0.19665584053759044          1.0000   
         H         H         1.0       0.1769429171843986  0.389339173587453   0.21211702234155663          1.0000   
         H         H         1.0       0.23284156144534185           0.4038809308380483 0.2230476146860857 1.0000   
         H         H         1.0       0.20723046355936042           0.4108612842474383 0.1947666791901153 1.0000   
         C         C         1.0       0.08215135870111497           0.021705246934810487         0.14826662922094588          1.0000   
         C         C         1.0       0.08743420550970368           0.034395600050246215         0.12522287181622685          1.0000   
         H         H         1.0       0.060983736469769984          0.027291749412717888         0.1502065092737665 1.0000   
         H         H         1.0       0.09683928674736852           0.03518867753052984          0.16331979745718628          1.0000   
         H         H         1.0       0.07418447486521426           0.024644801471658668         0.1074264737966412 1.0000   
         H         H         1.0       0.10934140806168155           0.02718862525670896          0.12494255453115546          1.0000   
         C         C         1.0       0.4139312737426042  0.042531270219945516         0.3878959864611125 1.0000   
         C         C         1.0       0.43036717399763263           0.051073560474049505         0.36969657233514464          1.0000   
         H         H         1.0       0.3908053430425891  0.04968174243696589           0.3805680688704832 1.0000   
         H         H         1.0       0.4225253439061171  0.057529510839740214         0.404148538288427  1.0000   
         H         H         1.0       0.41697145498659843           0.04696777112291668          0.35003546936976626          1.0000   
         H         H         1.0       0.4483755241323438  0.03598656841653505           0.37068785212464583          1.0000   
         C         C         1.0       0.5053569001166327  0.9265685375787045  0.018170475307937507         1.0000   
         C         C         1.0       0.026601847166915542          0.8402746500585832 0.031807324567583214         1.0000   
         H         H         1.0       0.5079385793125272  0.9523450005667954  0.02376012650172886          1.0000   
         H         H         1.0       0.49608285156242254           0.913910319915564  0.029938809538908644         1.0000   
         H         H         1.0       0.026353975386794848          0.8157835828905197 0.023864756634282294         1.0000   
         H         H         1.0       0.03264550855525229           0.857743965586728  0.019046636947150457         1.0000   
         C         C         1.0       0.08495698173897401           0.8775411599704528 0.31325370774494393          1.0000   
         C         C         1.0       0.06098434436664904           0.9000101774246121 0.3156857929277691 1.0000   
         H         H         1.0       0.08982755444603874           0.8596511478869752 0.3285613952945255 1.0000   
         H         H         1.0       0.10490194698282544           0.8909592662806481 0.31608245937475077          1.0000   
         H         H         1.0       0.04762680444450697           0.907238435471392  0.2965036516102987 1.0000   
         H         H         1.0       0.06922754724809169           0.9246821067660274 0.3254141238092235 1.0000   
         C         C         1.0       0.3755530553785289  0.5472784381152878  0.16673571164971604          1.0000   
         C         C         1.0       0.39315311950904475           0.5349066562257256 0.15050519115520034          1.0000   
         H         H         1.0       0.3874111809656019  0.5422556064968059  0.1866766064565713 1.0000   
         H         H         1.0       0.3571891454355804  0.5310317209780543  0.16340705259695856          1.0000   
         H         H         1.0       0.4156983611276896  0.5355651983101706  0.16185215783034096          1.0000   
         H         H         1.0       0.3916352478081867  0.5508146796023009  0.1355770421096877 1.0000   
         C         C         1.0       0.2197483257373039  0.8235529667495343  0.1759477051472216 1.0000   
         C         C         1.0       0.2047954143840834  0.8236104718768855  0.14733262824821927          1.0000   
         H         H         1.0       0.23286682615734414           0.8450732157908534 0.1777708869204556 1.0000   
         H         H         1.0       0.20531377948463278           0.8283874831664841 0.18626568985201736          1.0000   
         H         H         1.0       0.2070843181118091  0.8002933498365978  0.13845433860470055          1.0000   
         H         H         1.0       0.21866505234189765           0.8380915491467988 0.14059370909973212          1.0000   
         C         C         1.0       0.4482298792931869  0.7619153527085979  0.16844887573295655          1.0000   
         C         C         1.0       0.43600704293498405           0.7570977981919915 0.13978710656599194          1.0000   
         H         H         1.0       0.436980371477657   0.778273622335743   0.17703433864249205          1.0000   
         H         H         1.0       0.44925184533458823           0.7396108173027349 0.17823671004778316          1.0000   
         H         H         1.0       0.45275923175028465           0.745771140230041  0.1325957362787685 1.0000   
         H         H         1.0       0.4329057075906494  0.781395913398721   0.1308347629038022 1.0000   
         C         C         1.0       0.3654936403606181  0.7255146559633396  0.3183452705011596 1.0000   
         C         C         1.0       0.3702842214640033  0.755492100209899   0.3354831130336597 1.0000   
         H         H         1.0       0.3561508986460649  0.7076393517618618  0.32683663846288685          1.0000   
         H         H         1.0       0.38583590813028185           0.7155497923917727 0.3175680316432514 1.0000   
         H         H         1.0       0.3512490918755371  0.7725188952616475  0.32871538701247544          1.0000   
         H         H         1.0       0.3673687805869615  0.7505673418979893  0.353171511599422  1.0000   
         C         C         1.0       0.1668764735662102  0.507849690223653   0.35616112674733774          1.0000   
         C         C         1.0       0.15784421211495697           0.5288772904706278 0.37617536465531376          1.0000   
         H         H         1.0       0.18608107527370424           0.5175649140904915 0.3532359415058401 1.0000   
         H         H         1.0       0.15049210273483346           0.5112296834985333 0.3376755207891567 1.0000   
         H         H         1.0       0.1639331550887103  0.5173234653267219  0.3938551398092708 1.0000   
         H         H         1.0       0.13585921606575532           0.5303767172702426 0.3706219144086144 1.0000   
         C         C         1.0       0.08079029690334281           0.7381164034155007 0.41115139469644646          1.0000   
         C         C         1.0       0.1105251324503282  0.7530614629039771  0.4182479685019609 1.0000   
         H         H         1.0       0.07654274581459268           0.7291646802585586 0.4275608979150165 1.0000   
         H         H         1.0       0.076446488723139   0.7174245993988616  0.3979561935184109 1.0000   
         H         H         1.0       0.11613094907725294           0.7633271801687148 0.4377379083842454 1.0000   
         H         H         1.0       0.10993333893440223           0.7741263631996466 0.4046093120456898 1.0000   
         C         C         1.0       0.31707597924731773           0.7952037428022899 0.3950866182975763 1.0000   
         C         C         1.0       0.31648899594068197           0.8286893930478965 0.3833169950859179 1.0000   
         H         H         1.0       0.31038391153738254           0.7982840458404045 0.4108252406506415 1.0000   
         H         H         1.0       0.3389612255656657  0.7857268489050743  0.4044778828564555 1.0000   
         H         H         1.0       0.3113034260854497  0.8248512613625646  0.3625194154579319 1.0000   
         H         H         1.0       0.29737394368334086           0.8423735991269531 0.38451185082506056          1.0000   
         C         C         1.0       0.18111263913920014           0.7255909600095217 0.22382574263516905          1.0000   
         C         C         1.0       0.14895686825768328           0.7180561360916563 0.21297270711970154          1.0000   
         H         H         1.0       0.191320830911337   0.7115268903453335  0.21276590998511008          1.0000   
         H         H         1.0       0.18420292573996486           0.7504733884355432 0.21943678883995385          1.0000   
         H         H         1.0       0.14235636979711533           0.695621815324882  0.2184321199522423 1.0000   
         H         H         1.0       0.14999072388201007           0.7109776828214573 0.19412870669819696          1.0000   
         C         C         1.0       0.27708734305502286           0.6727993974978276 0.0058184325221202204        1.0000   
         C         C         1.0       0.26399411615982427           0.6809744966404341 0.025784794594880797         1.0000   
         H         H         1.0       0.2965227727862506  0.6877785572354318  0.010561521990905374         1.0000   
         H         H         1.0       0.2855000702767623  0.6489924309827284  0.00911940980682046          1.0000   
         H         H         1.0       0.24647351115927138           0.6634904870409424 0.023749667034287478         1.0000   
         H         H         1.0       0.2538647832915562  0.7058361101926802  0.02301767215293225          1.0000   
         C         C         1.0       0.25383900730753206           0.5885215468309224 0.24378523113350997          1.0000   
         C         C         1.0       0.27614132877881314           0.5864570183737717 0.2704034534859492 1.0000   
         H         H         1.0       0.23144718323232188           0.5881098526082468 0.24370898556492224          1.0000   
         H         H         1.0       0.25408080628960755           0.5665913651392656 0.23115053822576023          1.0000   
         H         H         1.0       0.29766284402066684           0.5886087615603969 0.26866060650817536          1.0000   
         H         H         1.0       0.2737951956525239  0.562068424771388   0.27936981347044904          1.0000   
         C         C         1.0       0.29614549842773075           0.8034786074698513 0.8493921505548835 1.0000   
         C         C         1.0       0.2684348162395168  0.8021540990493552  0.8355261188077932 1.0000   
         C         C         1.0       0.25672169323834804           0.7733577738013964 0.8238554624467225 1.0000   
         C         C         1.0       0.27166440367563893           0.7448583773849466 0.8272967728763342 1.0000   
         C         C         1.0       0.29987387310431884           0.7480360885480871 0.8418534608903082 1.0000   
         C         C         1.0       0.31283066862628844           0.7778129827816493 0.8508712715720536 1.0000   
         H         H         1.0       0.25612349558255515           0.8223465193730006 0.8349119730834743 1.0000   
         H         H         1.0       0.23449861485754347           0.7736447506821287 0.8132459081521914 1.0000   
         H         H         1.0       0.3133408395547153  0.7262358993617064  0.8469388728018257 1.0000   
         H         H         1.0       0.33376024022596223           0.7782953553119618 0.8640688292022747 1.0000   
         C         C         1.0       0.2951245447913634  0.6840834964277407  0.8055064190691615 1.0000   
         C         C         1.0       0.27286745263175777           0.6796392800723581 0.8147712537705185 1.0000   
         C         C         1.0       0.2631345003556697  0.6480791054191608  0.8170349895508531 1.0000   
         C         C         1.0       0.2767896547234641  0.6236220980595631  0.8102111160179966 1.0000   
         C         C         1.0       0.29683978983285714           0.6274213930891512 0.7992030206370974 1.0000   
         C         C         1.0       0.30415036755759145           0.6585719058553202 0.7954351712687289 1.0000   
         C         C         1.0       0.2568969584504564  0.7105894625757679  0.8191570339794572 1.0000   
         C         C         1.0       0.23415446522084865           0.7130587894543101 0.7907966019619298 1.0000   
         C         C         1.0       0.20818573517630204           0.6956133191974817 0.784376960083879  1.0000   
         C         C         1.0       0.18863746266744477           0.6965715333791079 0.7617755132947247 1.0000   
         C         C         1.0       0.1936793199524454  0.7145730717786614  0.7437312311518338 1.0000   
         C         C         1.0       0.2188850331842686  0.7320844649275036  0.749121253993375  1.0000   
         C         C         1.0       0.23962807364796157           0.7315397877495825 0.772786853231691  1.0000   
         C         C         1.0       0.25896949894349397           0.689795471856542  0.8629456312750903 1.0000   
         C         C         1.0       0.2496109656362375  0.685197660307892   0.8831520573123942 1.0000   
         C         C         1.0       0.22279000183846545           0.6944532187733115 0.8826795220639625 1.0000   
         C         C         1.0       0.20783096163298406           0.7119551589028926 0.8619167732759268 1.0000   
         C         C         1.0       0.2168696743244946  0.7152173344312975  0.8418683118459804 1.0000   
         C         C         1.0       0.24336257852738924           0.7052473558340111 0.8412365981616257 1.0000   
         C         C         1.0       0.2063182623518695  0.6779650791405655  0.8988165020117144 1.0000   
         C         C         1.0       0.19297809257825066           0.5869163583037382 0.855160487563487  1.0000   
         C         C         1.0       0.2142663037704939  0.5905541345679105  0.8777955039220312 1.0000   
         C         C         1.0       0.21787417898149636           0.6178354499636035 0.8912039704927963 1.0000   
         C         C         1.0       0.19900137582500388           0.6424568084501896 0.8847656040017636 1.0000   
         C         C         1.0       0.17503391947287256           0.638398945752142  0.863419451055907  1.0000   
         C         C         1.0       0.17350729229043466           0.6108230311615889 0.8478254559482706 1.0000   
         C         C         1.0       0.17844176179982552           0.6949238448848064 0.9007398153203509 1.0000   
         C         C         1.0       0.17494742605541685           0.7281178835345096 0.9005089732526599 1.0000   
         C         C         1.0       0.15053535354240133           0.7422169979252653 0.9030338018782379 1.0000   
         C         C         1.0       0.12846287131185008           0.7225413922823144 0.9033097605677497 1.0000   
         C         C         1.0       0.13330849567609684           0.6894809498831768 0.9055532434489012 1.0000   
         C         C         1.0       0.15795756685814372           0.6762428023740549 0.9053979847999757 1.0000   
         C         C         1.0       0.21962328640843648           0.6529722323916013 0.9440381463277642 1.0000   
         C         C         1.0       0.2375284455447888  0.6532086294512516  0.9686224986056562 1.0000   
         C         C         1.0       0.2584599873626536  0.6755750638772412  0.9789328939913233 1.0000   
         C         C         1.0       0.26101785277254724           0.7002790584393644 0.963691816955385  1.0000   
         C         C         1.0       0.2443025163200803  0.700448269036677   0.9384438751709713 1.0000   
         C         C         1.0       0.22389705423740025           0.6771875691070397 0.9285138487063606 1.0000   
         H         H         1.0       0.29988147462946824           0.7084989908512895 0.7995165844014411 1.0000   
         H         H         1.0       0.24564570434778685           0.6447097241457532 0.8236809298641373 1.0000   
         H         H         1.0       0.26878849671905714           0.5990390521416972 0.809591495853883  1.0000   
         H         H         1.0       0.31503542169817284           0.6599871254857153 0.7822769210927315 1.0000   
         H         H         1.0       0.2073345005490462  0.6814192811793333  0.7983083994197541 1.0000   
         H         H         1.0       0.17040045840258142           0.6808902469686471 0.757115722212815  1.0000   
         H         H         1.0       0.22344176589540263           0.7447268613422903 0.7337763246361337 1.0000   
         H         H         1.0       0.2571588043997051  0.7482686456868886  0.7768193312379446 1.0000   
         H         H         1.0       0.2806645296245814  0.6850265684711968  0.8641392058346424 1.0000   
         H         H         1.0       0.26333382246448633           0.6713843799808914 0.8986090137112527 1.0000   
         H         H         1.0       0.18636803506195157           0.71776772409623   0.8600809202378213 1.0000   
         H         H         1.0       0.20406099514495515           0.7272339684974727 0.8257477971854962 1.0000   
         H         H         1.0       0.22875780849102473           0.5706494986736373 0.8836388218898943 1.0000   
         H         H         1.0       0.23759698256716535           0.6226333052598313 0.9063305210000835 1.0000   
         H         H         1.0       0.16174513118496478           0.6584121692431998 0.8559863494115748 1.0000   
         H         H         1.0       0.15546154242087157           0.6077391871134518 0.8313400014516193 1.0000   
         H         H         1.0       0.1908655670782525  0.7440089491070816  0.8981530107380303 1.0000   
         H         H         1.0       0.1480700928615312  0.767723813354149   0.9009333192233235 1.0000   
         H         H         1.0       0.11647213996720818           0.6726848577200589 0.906150588930869  1.0000   
         H         H         1.0       0.16096232175326544           0.6503654896156508 0.9088383348988491 1.0000   
         H         H         1.0       0.20303392245020424           0.634105492116255  0.9377086750015614 1.0000   
         H         H         1.0       0.23456718203766264           0.6347034149922494 0.9805132064119917 1.0000   
         H         H         1.0       0.2759802656220276  0.7200033846479957  0.9708933552313148 1.0000   
         H         H         1.0       0.24755139101675197           0.7207541033216633 0.9271966156443247 1.0000   
         C         C         1.0       0.22834694995791374           0.7784284515226335 0.672730858353256  1.0000   
         C         C         1.0       0.2545880706679305  0.7892077684031563  0.6855995958424824 1.0000   
         C         C         1.0       0.2754846700709125  0.7682175215192287  0.6974991272216192 1.0000   
         C         C         1.0       0.269681859202786   0.7352016440108154  0.6940344615752632 1.0000   
         C         C         1.0       0.24396096211611384           0.7251988014064545 0.6788966516006754 1.0000   
         C         C         1.0       0.22269033807367897           0.7449750137639556 0.6688401082268305 1.0000   
         H         H         1.0       0.26071882641343525           0.8146343046387855 0.6905612368281265 1.0000   
         H         H         1.0       0.29636199943935    0.7790267648100769  0.7053895078241703 1.0000   
         H         H         1.0       0.23795818139983374           0.6993788323419502 0.6768837174356536 1.0000   
         H         H         1.0       0.2010019245803336  0.7382462481688657  0.6606990797011765 1.0000   
         C         C         1.0       0.26508812024624945           0.672650478102909  0.7251021286308728 1.0000   
         C         C         1.0       0.28815620994463287           0.6767656521722996 0.7163464342706134 1.0000   
         C         C         1.0       0.30878112349567416           0.6527876317999672 0.7222536688358484 1.0000   
         C         C         1.0       0.3064776188289612  0.6253589188917822  0.734589746141966  1.0000   
         C         C         1.0       0.2825513870782831  0.6209985239940247  0.7420270454549873 1.0000   
         C         C         1.0       0.2624887823225975  0.6444088799901959  0.7371652841644961 1.0000   
         C         C         1.0       0.29461950475757775           0.7103790404145811 0.7057668678824602 1.0000   
         C         C         1.0       0.3191120561962134  0.7243524365900947  0.7304029659078907 1.0000   
         C         C         1.0       0.34740866950983973           0.7225253019494373 0.7354515792834485 1.0000   
         C         C         1.0       0.36584041757826286           0.7362313825278533 0.7569934034203818 1.0000   
         C         C         1.0       0.3562302133367785  0.7515567602900266  0.7739835779685078 1.0000   
         C         C         1.0       0.3272023886084992  0.7497984921022216  0.7707256858889556 1.0000   
         C         C         1.0       0.3093282954216515  0.7357934459047545  0.7497445652071149 1.0000   
         C         C         1.0       0.29761612711011415           0.6787131911831292 0.666113799601561  1.0000   
         C         C         1.0       0.30670571019178683           0.6748721937747424 0.6470541458823547 1.0000   
         C         C         1.0       0.32672248073159466           0.6974126471585734 0.6442137251056897 1.0000   
         C         C         1.0       0.3316572678115645  0.7257152022737986  0.6578714453697754 1.0000   
         C         C         1.0       0.32032938886516354           0.7310673774589742 0.6766418122081552 1.0000   
         C         C         1.0       0.3047063104428133  0.705962543942509   0.6819636801234955 1.0000   
         C         C         1.0       0.3412726836062716  0.6909027993905087  0.6238957284509287 1.0000   
         C         C         1.0       0.3656006081317047  0.585460008782281   0.6241549013923782 1.0000   
         C         C         1.0       0.35686000453137084           0.6039138723240397 0.6027674901947812 1.0000   
         C         C         1.0       0.3514585313730285  0.6366878555108584  0.6039724327690809 1.0000   
         C         C         1.0       0.3514004672416163  0.6521306973846109  0.6252337215182793 1.0000   
         C         C         1.0       0.35897510195760013           0.6331223986709836 0.6462589493568427 1.0000   
         C         C         1.0       0.3666467838005907  0.6013414859590824  0.6460478971283103 1.0000   
         C         C         1.0       0.37126669532949913           0.710251600533708  0.6340752858327081 1.0000   
         C         C         1.0       0.3754277517928033  0.7392294243276604  0.6241387604257175 1.0000   
         C         C         1.0       0.4008457186982619  0.7544371831935449  0.6323391938833235 1.0000   
         C         C         1.0       0.421909342490928   0.7447062461293426  0.6526889429133933 1.0000   
         C         C         1.0       0.4176776552034731  0.717397463034974   0.663538832723757  1.0000   
         C         C         1.0       0.3929617888020123  0.6996046354361939  0.6540364084297037 1.0000   
         C         C         1.0       0.33175270043939425           0.7046085045286326 0.5788050418783406 1.0000   
         C         C         1.0       0.31472015557559785           0.70986601141956   0.5542097045957027 1.0000   
         C         C         1.0       0.2865386774394571  0.7142927937113336  0.5496833172973524 1.0000   
         C         C         1.0       0.27474611052906595           0.7106296103201049 0.5679820702397411 1.0000   
         C         C         1.0       0.2921313912615693  0.7060145435024965  0.5916581442414849 1.0000   
         C         C         1.0       0.3206164687792118  0.7016308009048677  0.5977084507354984 1.0000   
         H         H         1.0       0.24824427853167688           0.6896981516762093 0.7220369510047997 1.0000   
         H         H         1.0       0.328439479873278   0.656885581386042   0.7180763906694206 1.0000   
         H         H         1.0       0.3231238129472233  0.6086363723225947  0.7384421065360774 1.0000   
         H         H         1.0       0.24364294926569702           0.6436983439691468 0.7417746544194768 1.0000   
         H         H         1.0       0.3576056176729824  0.7095644559440405  0.7229240750337019 1.0000   
         H         H         1.0       0.3885367341004627  0.735642157159289   0.7606949314802569 1.0000   
         H         H         1.0       0.3206966009495678  0.7623048669409439  0.7850975460816602 1.0000   
         H         H         1.0       0.2864644499418239  0.7330647088983641  0.7456899998043551 1.0000   
         H         H         1.0       0.28186019015063973           0.6617797016579419 0.6688807118818759 1.0000   
         H         H         1.0       0.30255365981956744           0.6523267264828538 0.6355523795404414 1.0000   
         H         H         1.0       0.34470060918582673           0.7465232405480591 0.6552301135770566 1.0000   
         H         H         1.0       0.32489530578169623           0.7523332357512399 0.687224481959595  1.0000   
         H         H         1.0       0.35855525001723326           0.5938643290842733 0.5858390709110185 1.0000   
         H         H         1.0       0.3412634533038598  0.6463673239056973  0.5863484481515401 1.0000   
         H         H         1.0       0.3595513086941491  0.6453539786346102  0.6635791225592178 1.0000   
         H         H         1.0       0.37161569735498673           0.5896718762945203 0.6632863728581756 1.0000   
         H         H         1.0       0.3587734803127285  0.7504369243409522  0.6105429422783434 1.0000   
         H         H         1.0       0.40359122302027967           0.7758578056467729 0.6231808160331235 1.0000   
         H         H         1.0       0.43220928190415825           0.71152570244756   0.6822948297046008 1.0000   
         H         H         1.0       0.3900308433233436  0.6801596037534536  0.6648071991056493 1.0000   
         H         H         1.0       0.3535918024685916  0.701573157078993   0.581867022161651  1.0000   
         H         H         1.0       0.3230803415691994  0.7153768576339046  0.5398552771604873 1.0000   
         H         H         1.0       0.25203565496974706           0.7107997349748775 0.564645073758055  1.0000   
         H         H         1.0       0.28085512856275396           0.7073854026154425 0.6050479484524166 1.0000   
         C         C         1.0       0.392187496229458   0.01023920374108536           0.8762991204379627 1.0000   
         C         C         1.0       0.4077904923146962  0.011047693784179028         0.9021043305688264 1.0000   
         C         C         1.0       0.41809243398473234           0.9829970759935114 0.9137203232288011 1.0000   
         C         C         1.0       0.41548142362874957           0.9537582647899701 0.8993661284241075 1.0000   
         C         C         1.0       0.40173197321527243           0.9547279065036044 0.8737742786143206 1.0000   
         C         C         1.0       0.3897101012205073  0.9821146704770147  0.8627492221491375 1.0000   
         H         H         1.0       0.41196875528841354           0.03353938192411758          0.9117461324181546 1.0000   
         H         H         1.0       0.4266576737052257  0.9843701494294894  0.9335378228340858 1.0000   
         H         H         1.0       0.40273789568787144           0.9341013346879457 0.8613295198882127 1.0000   
         H         H         1.0       0.37835167003405645           0.9797106921832537 0.8435910817983879 1.0000   
         C         C         1.0       0.3821887428403666  0.9044756363990017  0.9163995484519284 1.0000   
         C         C         1.0       0.4031604054353286  0.8980976498003179  0.9054351291046944 1.0000   
         C         C         1.0       0.3978112156131467  0.8726696392980297  0.8883069534787754 1.0000   
         C         C         1.0       0.37463317721421097           0.8535908229711971 0.8825599606164483 1.0000   
         C         C         1.0       0.3553263012632283  0.8585567892477166  0.8943725678768625 1.0000   
         C         C         1.0       0.3581541105887551  0.8850449292244865  0.9102712962898253 1.0000   
         C         C         1.0       0.4307037066158415  0.9212937351263213  0.9125443363586082 1.0000   
         C         C         1.0       0.4484190337839537  0.9245569772541603  0.9426228653275338 1.0000   
         C         C         1.0       0.4438959977749309  0.9042564756424412  0.9608147010372481 1.0000   
         C         C         1.0       0.46157285401150866           0.904902629882459  0.9847624775477009 1.0000   
         C         C         1.0       0.48576711503377734           0.9231711345356092 0.9914550194239702 1.0000   
         C         C         1.0       0.49091575045286284           0.9439713982550704 0.9743453894061203 1.0000   
         C         C         1.0       0.4727506600203189  0.9437117275202006  0.9504647738651414 1.0000   
         C         C         1.0       0.46471616273183197           0.9273889195576939 0.8860282675437684 1.0000   
         C         C         1.0       0.47998392096569015           0.9120344003078737 0.8729846457533639 1.0000   
         C         C         1.0       0.4875151809134323  0.8796995002102539  0.8763816256160396 1.0000   
         C         C         1.0       0.4819385093828093  0.8647737829901192  0.8945822182286778 1.0000   
         C         C         1.0       0.46672518899092036           0.8789202041531077 0.9080523861668884 1.0000   
         C         C         1.0       0.4537648987758543  0.9095360779537371  0.9007565485381305 1.0000   
         C         C         1.0       0.4958030903618421  0.8580449585454532  0.8559986801493424 1.0000   
         C         C         1.0       0.41147777790693746           0.8137616048027658 0.818967503253809  1.0000   
         C         C         1.0       0.4188514609929657  0.841418913060061   0.811129651855039  1.0000   
         C         C         1.0       0.4450082773580844  0.8549669933811302  0.8226383268739127 1.0000   
         C         C         1.0       0.46563519842364853           0.8400735917050671 0.8415106422806511 1.0000   
         C         C         1.0       0.4576700973171627  0.8125393203536567  0.8500455309300161 1.0000   
         C         C         1.0       0.430957579470412   0.7996248502093102  0.8386431149697404 1.0000   
         C         C         1.0       0.007711780044788687          0.805092083509343  0.857263914998644  1.0000   
         C         C         1.0       0.0340663316421648  0.8162063774942364  0.8716271432026409 1.0000   
         C         C         1.0       0.05632025886595484           0.7961208596964279 0.8783869604295834 1.0000   
         C         C         1.0       0.05444591635883011           0.7649932030962598 0.8688093640048448 1.0000   
         C         C         1.0       0.02904215687650802           0.7551179008245155 0.853390338911571  1.0000   
         C         C         1.0       0.005403763597159705          0.774527617326956  0.8467763886968093 1.0000   
         C         C         1.0       0.50322381359519    0.8728796499514945  0.8130037670505055 1.0000   
         C         C         1.0       0.5148433625212515  0.893427573417981   0.8003459678803023 1.0000   
         C         C         1.0       0.5352332883496183  0.9155326256845048  0.8124244040552677 1.0000   
         C         C         1.0       0.5426548719692361  0.9187017435692355  0.8371751055675627 1.0000   
         C         C         1.0       0.5303039159269531  0.9003416239594468  0.8511363391021378 1.0000   
         C         C         1.0       0.5091643324640469  0.8780194191421596  0.8388858055020834 1.0000   
         H         H         1.0       0.3862827326038543  0.9258245598087176  0.9297943950104396 1.0000   
         H         H         1.0       0.413430316772374   0.8671406365874065  0.8792474903300143 1.0000   
         H         H         1.0       0.37301847831893903           0.8296172046465936 0.8741786979082389 1.0000   
         H         H         1.0       0.34093145890315213           0.8913808323979645 0.9171911733831651 1.0000   
         H         H         1.0       0.4262409045543456  0.8878725682064061  0.9568990595040482 1.0000   
         H         H         1.0       0.4575189616267714  0.8889119283492077  0.9973586320423442 1.0000   
         H         H         1.0       0.4523825164554017  0.9324073270688068  0.5045805081645431 1.0000   
         H         H         1.0       0.4785679403230844  0.957962432772341   0.9375574516891151 1.0000   
         H         H         1.0       0.45720632877491163           0.9508686674803982 0.8819110658249832 1.0000   
         H         H         1.0       0.48559661570330015           0.9255534935715853 0.8605938194709015 1.0000   
         H         H         1.0       0.4885084273454431  0.8393759448639413  0.8975986483455619 1.0000   
         H         H         1.0       0.4619171574684677  0.8661199919302043  0.9223469316468051 1.0000   
         H         H         1.0       0.40325207390906204           0.8538091156063441 0.7945615473671632 1.0000   
         H         H         1.0       0.4484101142201035  0.8788678978496058  0.817382337436758  1.0000   
         H         H         1.0       0.46950436457245626           0.8003823567052278 0.8657618698573345 1.0000   
         H         H         1.0       0.4237815256596333  0.7784297701272384  0.8454549937392358 1.0000   
         H         H         1.0       0.03484683903588412           0.8419004200968748 0.876007681327585  1.0000   
         H         H         1.0       0.07768789697595048           0.8050457324906831 0.8877104685986066 1.0000   
         H         H         1.0       0.024196719806322837          0.7317185717106146 0.8448967265311861 1.0000   
         H         H         1.0       0.5134851822950253  0.8103926425315312  0.8302642870255276 1.0000   
         H         H         1.0       0.4883953512547862  0.8540380108065232  0.801838464057881  1.0000   
         H         H         1.0       0.5085843245434852  0.8914027956184267  0.7804913234791261 1.0000   
         H         H         1.0       0.560827955409117   0.9333576935188003  0.8471543458573491 1.0000   
         H         H         1.0       0.5352759915611481  0.9050119483022193  0.871322788206624  1.0000   
         C         C         1.0       0.10378010192268843           0.9906694201402994 0.6606840573526552 1.0000   
         C         C         1.0       0.07794692847071956           0.978655944113034  0.6462957991534914 1.0000   
         C         C         1.0       0.0748587182323342  0.9450843100455992  0.6396145786226238 1.0000   
         C         C         1.0       0.09910285402552754           0.9266668140062909 0.6419978397396304 1.0000   
         C         C         1.0       0.12559296683091342           0.9393520458022387 0.6572997795819143 1.0000   
         C         C         1.0       0.127193029325581   0.9711633308692201  0.665471507394096  1.0000   
         H         H         1.0       0.05909075261450333           0.9929635991235971 0.6436859196612651 1.0000   
         H         H         1.0       0.05536949818099123           0.9332556494964718 0.6320034411913593 1.0000   
         H         H         1.0       0.14295738713376765           0.924862956611458  0.6630688111320645 1.0000   
         H         H         1.0       0.14736101666878224           0.9811620628989615 0.6762735886776909 1.0000   
         C         C         1.0       0.14682689459931422           0.8856036207513779 0.6288733443428306 1.0000   
         C         C         1.0       0.12250899310787239           0.871297826882226  0.628942916137982  1.0000   
         C         C         1.0       0.12146789706693081           0.8370005212993481 0.6295638263130717 1.0000   
         C         C         1.0       0.1448359997099301  0.8197846364982199  0.6292318189917199 1.0000   
         C         C         1.0       0.1699382704228826  0.8356408855932039  0.6340993182784713 1.0000   
         C         C         1.0       0.17169586855600072           0.8684610705796509 0.6340603072109778 1.0000   
         C         C         1.0       0.09502241765309001           0.8900237014014423 0.6302560700049643 1.0000   
         C         C         1.0       0.07712622556879259           0.8888607547870809 0.6005242077284282 1.0000   
         C         C         1.0       0.062450069170812826          0.86191011181755   0.5884157891131587 1.0000   
         C         C         1.0       0.0457330130127004  0.8627380215852658  0.5642958850236588 1.0000   
         C         C         1.0       0.04748868145729225           0.8885841962144517 0.5505052062014505 1.0000   
         C         C         1.0       0.0638369530417817  0.915531721942829   0.5618292167280834 1.0000   
         C         C         1.0       0.07787325373017207           0.9158854056469932 0.5861213822044367 1.0000   
         C         C         1.0       0.10394240675233112           0.8698274627415364 0.6729461724283851 1.0000   
         C         C         1.0       0.09762553372738576           0.8515574341133466 0.6908899921448615 1.0000   
         C         C         1.0       0.07135844495331016           0.8388534304577551 0.6862819005829365 1.0000   
         C         C         1.0       0.0524580683269715  0.8428066446012651  0.6623305479340829 1.0000   
         C         C         1.0       0.0590252030857159  0.8603595008597155  0.6443233679488974 1.0000   
         C         C         1.0       0.084770133283281   0.8736867965974601  0.6498743583016483 1.0000   
         C         C         1.0       0.06479117925737121           0.8159190789937878 0.7061955670513165 1.0000   
         C         C         1.0       0.12103022015992011           0.7348010357014818 0.7105882188542683 1.0000   
         C         C         1.0       0.12777423806977425           0.7585156851751267 0.7286777941916678 1.0000   
         C         C         1.0       0.11069127935763204           0.7848085791178911 0.7265243854652892 1.0000   
         C         C         1.0       0.08476300551801794           0.7857803231209525 0.707710082788442  1.0000   
         C         C         1.0       0.07879061981764218           0.7630561872734531 0.6884785839761722 1.0000   
         C         C         1.0       0.09619340132646698           0.7360644826163292 0.6907012298477453 1.0000   
         C         C         1.0       0.03229806135656204           0.8028183469866712 0.6991473505882541 1.0000   
         C         C         1.0       0.009584713768537183          0.8253148032280597 0.6914761849141756 1.0000   
         C         C         1.0       0.48816117296438094           0.824442240963108  0.6934988589274736 1.0000   
         C         C         1.0       0.4855382954539153  0.7917857545084238  0.696426447430509  1.0000   
         C         C         1.0       0.5099685431026553  0.773175536312887   0.7073330806926988 1.0000   
         C         C         1.0       0.025888479985282268          0.7724516517807603 0.7053368252096502 1.0000   
         C         C         1.0       0.06867140649646056           0.8223205843414306 0.7532250129468852 1.0000   
         C         C         1.0       0.07072752792407612           0.8406616924178338 0.7744045094809616 1.0000   
         C         C         1.0       0.0658518188165693  0.8723684836400629  0.7723082695213273 1.0000   
         C         C         1.0       0.060745794103275214          0.8872789567031669 0.7493803366711588 1.0000   
         C         C         1.0       0.06460433744647259           0.86975208985777   0.7301625204917472 1.0000   
         C         C         1.0       0.06814871230230868           0.8372056795540317 0.7312235658164619 1.0000   
         H         H         1.0       0.1450124332703979  0.910308094479656   0.6242576584313674 1.0000   
         H         H         1.0       0.10410381087291179           0.8245959709128643 0.6325139252439446 1.0000   
         H         H         1.0       0.143203611099215   0.7941776384608764  0.6275651465189536 1.0000   
         H         H         1.0       0.18941608225219503           0.8834055443640918 0.6339350697193458 1.0000   
         H         H         1.0       0.06088755155821427           0.8404676185940796 0.5983467413117289 1.0000   
         H         H         1.0       0.03459129975812481           0.8394650455335328 0.5556830940657129 1.0000   
         H         H         1.0       0.06575017126397749           0.9371769025969521 0.5512940534536206 1.0000   
         H         H         1.0       0.08646425310897218           0.9394475317557974 0.5943851646563718 1.0000   
         H         H         1.0       0.12538986356467502           0.8778792974130992 0.6785408191818243 1.0000   
         H         H         1.0       0.11056291121590622           0.8510464837520422 0.7100256057574215 1.0000   
         H         H         1.0       0.03193301830644663           0.8304725976098485 0.6566521561487333 1.0000   
         H         H         1.0       0.04315948317142669           0.8629538795752904 0.6268800079301143 1.0000   
         H         H         1.0       0.1458938475401894  0.7560808387847499  0.7443765151152    1.0000   
         H         H         1.0       0.11868095866524651           0.8025865943209529 0.7414703788176246 1.0000   
         H         H         1.0       0.0593104692935826  0.7681063159176251  0.6730509231178876 1.0000   
         H         H         1.0       0.08770846708342647           0.7176536354376535 0.6758278089709971 1.0000   
         H         H         1.0       0.017201626304700963          0.8487808870590894 0.6902865126574523 1.0000   
         H         H         1.0       0.47034034290597126           0.8420783529263972 0.6870328036731199 1.0000   
         H         H         1.0       0.5085867912476393  0.7481776861770197  0.7108627065760954 1.0000   
         H         H         1.0       0.04104586363954714           0.7553782567411349 0.7147192612744899 1.0000   
         H         H         1.0       0.07274615998439389           0.7972211671920466 0.7556566301843584 1.0000   
         H         H         1.0       0.07228412577401645           0.8290528255272619 0.792231425072591  1.0000   
         H         H         1.0       0.0577121694973011  0.9150325759383146  0.7489497890661296 1.0000   
         H         H         1.0       0.06415331218997695           0.8831989399600991 0.7134235009194287 1.0000   
         C         C         1.0       0.19742019315827164           0.5041039797482187 0.8603339172981567 1.0000   
         C         C         1.0       0.21817047073280565           0.4918885637115385 0.8801986696196787 1.0000   
         C         C         1.0       0.2138952941597942  0.46437746376242117           0.891338411366877  1.0000   
         C         C         1.0       0.18937949815114524           0.4455836706041928 0.8817382974881216 1.0000   
         C         C         1.0       0.16749485130881483           0.460804340649081  0.8626928307033407 1.0000   
         C         C         1.0       0.17217804938072856           0.4881074224856948 0.8529069987133863 1.0000   
         H         H         1.0       0.240239316014838   0.5021873474114543  0.8850699723467899 1.0000   
         H         H         1.0       0.23103517921862268           0.45492116509392155          0.9063794011604722 1.0000   
         H         H         1.0       0.1466851890860393  0.4511124373543857  0.854509718087346  1.0000   
         H         H         1.0       0.15444258309129597           0.49619505860311336          0.8375599114431858 1.0000   
         C         C         1.0       0.1337969568328825  0.41583875978404944           0.8876757899274824 1.0000   
         C         C         1.0       0.15505523636456875           0.39934937926615355          0.8841691801994843 1.0000   
         C         C         1.0       0.1484095987028663  0.3679815273825461  0.8740281866158622 1.0000   
         C         C         1.0       0.12158679167521366           0.35584630622943764          0.8664433621430534 1.0000   
         C         C         1.0       0.10046386058461325           0.3735753228420362 0.870040513123348  1.0000   
         C         C         1.0       0.10640844185273021           0.40495841041583547          0.8805764130665449 1.0000   
         C         C         1.0       0.1859258734212314  0.41040097612276893           0.8909790595326833 1.0000   
         C         C         1.0       0.19690937716170087           0.40629286215997773          0.9213374523438767 1.0000   
         C         C         1.0       0.21032778875087496           0.37893916101127517          0.9332781297677051 1.0000   
         C         C         1.0       0.22194670451029816           0.38060377019796604          0.9589555532054976 1.0000   
         C         C         1.0       0.22194035467234569           0.40971739892715076          0.9721286081394616 1.0000   
         C         C         1.0       0.20896421759505981           0.43705643819436096          0.9601611175049284 1.0000   
         C         C         1.0       0.1943369913759116  0.43415184014923175           0.9352650763447571 1.0000   
         C         C         1.0       0.19229394500558714           0.3897483095930077 0.8492113628625495 1.0000   
         C         C         1.0       0.20689795092522686           0.37564873180908315          0.8353092829881792 1.0000   
         C         C         1.0       0.2311683538982853  0.35944362941513436           0.847068336421958  1.0000   
         C         C         1.0       0.24220619684424857           0.3594739313879952 0.8731613167719511 1.0000   
         C         C         1.0       0.22941842613798516           0.3771091689184483 0.88669869574554   1.0000   
         C         C         1.0       0.20398298967933187           0.3919332554488121 0.8754610972050876 1.0000   
         C         C         1.0       0.24464504408048118           0.33751268913477367          0.8310007507984581 1.0000   
         C         C         1.0       0.18859713306102924           0.2530535096955912 0.8224702121009552 1.0000   
         C         C         1.0       0.1809131111571569  0.27584506276189674           0.8044950773137509 1.0000   
         C         C         1.0       0.19877952144746855           0.3039318866439123 0.8076292522560573 1.0000   
         C         C         1.0       0.22354858991692445           0.3077604524918325 0.8276682233303425 1.0000   
         C         C         1.0       0.22969497303058556           0.2849379120067175 0.8459647440821874 1.0000   
         C         C         1.0       0.21338739334360327           0.25798473449057613          0.8422913133447432 1.0000   
         C         C         1.0       0.27861128576979277           0.3294953216900266 0.8420878696967216 1.0000   
         C         C         1.0       0.2972904158159818  0.3543449096846234  0.8562376037699647 1.0000   
         C         C         1.0       0.32637292566894016           0.348538892647057  0.8656677900429143 1.0000   
         C         C         1.0       0.337301528839799   0.31965765397147505           0.8620994250377152 1.0000   
         C         C         1.0       0.32016545333127105           0.2963978962905268 0.8469929366335771 1.0000   
         C         C         1.0       0.29116319142481434           0.2998105616901199 0.8378011923065914 1.0000   
         C         C         1.0       0.24706734864940794           0.3299040256869796 0.7863001883887003 1.0000   
         C         C         1.0       0.25240737839497607           0.3429639103586775 0.7662879172499881 1.0000   
         C         C         1.0       0.25739048448674295           0.3754139006380312 0.7651082701767382 1.0000   
         C         C         1.0       0.2539008993901137  0.394592788027968   0.7830886342356458 1.0000   
         C         C         1.0       0.25056616261364234           0.38298667732369823          0.8042978008376819 1.0000   
         C         C         1.0       0.24600799568545173           0.3500921462901428 0.8055217552909569 1.0000   
         H         H         1.0       0.13651051718065663           0.4395386708119732 0.8961358295506208 1.0000   
         H         H         1.0       0.164941968431427   0.3531277169448695  0.8735105451492075 1.0000   
         H         H         1.0       0.11785111121465441           0.3311251576738422 0.8584552331450948 1.0000   
         H         H         1.0       0.09001675520781878           0.42078932205854214          0.8841976711270639 1.0000   
         H         H         1.0       0.20986817223245263           0.35714992117257505          0.9231775541971179 1.0000   
         H         H         1.0       0.23024730816826544           0.3587962102553326 0.9696246662404646 1.0000   
         H         H         1.0       0.20816993919978055           0.46056531781403276          0.9704980155747887 1.0000   
         H         H         1.0       0.18382815992549642           0.45499989763960996          0.9247141106856596 1.0000   
         H         H         1.0       0.1717471058064505  0.3971552087280646  0.8381202631039741 1.0000   
         H         H         1.0       0.19877706863610034           0.3737968059037505 0.8154283093634598 1.0000   
         H         H         1.0       0.26213575165085695           0.34859866124893435          0.8852716141386071 1.0000   
         H         H         1.0       0.24122631145060794           0.3810875924901677 0.9062365595871752 1.0000   
         H         H         1.0       0.16134531765633794           0.27239365844324903          0.7877446352975909 1.0000   
         H         H         1.0       0.1940037500322475  0.3230712086624768  0.7942923709332854 1.0000   
         H         H         1.0       0.24406777877330663           0.28861773905890403          0.864604570878422  1.0000   
         H         H         1.0       0.2175701737147023  0.23991452741329747           0.8559469583045326 1.0000   
         H         H         1.0       0.2890965203653004  0.37814893839204794           0.8598388769230021 1.0000   
         H         H         1.0       0.3388469338302203  0.36824389699405263           0.876281186796558  1.0000   
         H         H         1.0       0.3288049492578949  0.2759170134906231  0.8403263368991412 1.0000   
         H         H         1.0       0.2759176857422977  0.283469205730003   0.824207700510639  1.0000   
         H         H         1.0       0.24586963046743882           0.3050280704150232 0.7887809592411866 1.0000   
         H         H         1.0       0.25547546730674175           0.3248208399673172 0.752461754736151  1.0000   
         H         H         1.0       0.2559980604872303  0.4208102884003431  0.782074511599435  1.0000   
         H         H         1.0       0.25037597551275764           0.39937618809305575          0.820143024436872  1.0000   
         C         C         1.0       0.3598006172626812  0.4935639538977507  0.6013799537270101 1.0000   
         C         C         1.0       0.33985356268846084           0.4758771316489384 0.6081519403532841 1.0000   
         C         C         1.0       0.34042970077657236           0.44261875436682313          0.6059856374244367 1.0000   
         C         C         1.0       0.3602568453140531  0.4275730428237401  0.5976449240899505 1.0000   
         C         C         1.0       0.3803732567233742  0.4447866045668575  0.592026091471367  1.0000   
         C         C         1.0       0.38013586112952236           0.47808036651854946          0.5948942621502884 1.0000   
         H         H         1.0       0.32347924609333834           0.48855938542613764          0.6127492593322673 1.0000   
         H         H         1.0       0.32490404990873883           0.4300516701938463 0.6112672002449093 1.0000   
         H         H         1.0       0.39232997952481685           0.4325499181189671 0.582132129339409  1.0000   
         H         H         1.0       0.3969052328283405  0.49187823473680714           0.5939722415242598 1.0000   
         C         C         1.0       0.39138297679235384           0.3397124759466944 0.5916914011799601 1.0000   
         C         C         1.0       0.3887099157123168  0.3715912927059938  0.5996380119615864 1.0000   
         C         C         1.0       0.41296026408625974           0.38360980285230495          0.6184219922839016 1.0000   
         C         C         1.0       0.4375037812195584  0.36694568159229796           0.6263452851882882 1.0000   
         C         C         1.0       0.4388687615387104  0.3360014623219665  0.6191066243821569 1.0000   
         C         C         1.0       0.4149949408550434  0.3214134573666377  0.6023821065013357 1.0000   
         C         C         1.0       0.3589292288202815  0.387994363423565   0.595526671588949  1.0000   
         C         C         1.0       0.3369629133758244  0.38602811540612453           0.5675485887591007 1.0000   
         C         C         1.0       0.30837780684402977           0.38987923158026144          0.5633805262648522 1.0000   
         C         C         1.0       0.28881971539528145           0.38782768717090055          0.5395988054909525 1.0000   
         C         C         1.0       0.29683550676524517           0.38277526384620636          0.5191499286310961 1.0000   
         C         C         1.0       0.325508209176199   0.3817163040904118  0.5222377765542962 1.0000   
         C         C         1.0       0.34581358029978027           0.38162799910529854          0.5468787950833255 1.0000   
         C         C         1.0       0.3598590718683634  0.38135007545458555           0.640627070558704  1.0000   
         C         C         1.0       0.3510390046859039  0.3677067995702456  0.6578307077976134 1.0000   
         C         C         1.0       0.33350539393707224           0.3404295136317558 0.6519998520820207 1.0000   
         C         C         1.0       0.32417217067586207           0.328691871119146  0.6279585525381727 1.0000   
         C         C         1.0       0.3308951379010424  0.3432682555605163  0.609986265973734  1.0000   
         C         C         1.0       0.3480642208241818  0.37113329271010903           0.6159967537415695 1.0000   
         C         C         1.0       0.32623620788324664           0.318836956883547  0.6741889707749625 1.0000   
         C         C         1.0       0.39996505911448704           0.2597046765602105 0.6856431403709016 1.0000   
         C         C         1.0       0.40161576068424193           0.28617220422642026          0.7006024371227909 1.0000   
         C         C         1.0       0.3793997156761137  0.30558869021849927           0.697002945457889  1.0000   
         C         C         1.0       0.35323415848576856           0.297103694590866  0.6795155741921034 1.0000   
         C         C         1.0       0.35024902485117054           0.2670135019166666 0.6675429553545289 1.0000   
         C         C         1.0       0.3740560290816319  0.24895185902827385           0.6700310768367387 1.0000   
         C         C         1.0       0.29430142842738727           0.30311633530327337          0.6654418019922692 1.0000   
         C         C         1.0       0.2706303123972404  0.31916892745607606           0.6507650683809784 1.0000   
         C         C         1.0       0.24341503634886252           0.30680169595417556          0.6462436003536843 1.0000   
         C         C         1.0       0.23936610983319914           0.277657868189567  0.6560561653003026 1.0000   
         C         C         1.0       0.2632448825389238  0.2597721542452489  0.6701633258523939 1.0000   
         C         C         1.0       0.2893784130065858  0.2747914333134766  0.6764906581212962 1.0000   
         C         C         1.0       0.32509014174101375           0.3243951992440613 0.7183873396884483 1.0000   
         C         C         1.0       0.31753241548116545           0.3398978437793184 0.7366027070945929 1.0000   
         C         C         1.0       0.3103989831649654  0.3719064739035859  0.7344048959898785 1.0000   
         C         C         1.0       0.31126745425168456           0.38827973132698185          0.713610846950034  1.0000   
         C         C         1.0       0.31603266118771134           0.3716913526586916 0.6942627064097193 1.0000   
         C         C         1.0       0.3228220329418399  0.33935327373490587           0.696291483555901  1.0000   
         H         H         1.0       0.37543182968551775           0.32918488708956795          0.5761727120573573 1.0000   
         H         H         1.0       0.4121288814145623  0.40745239527374794           0.6265862632613277 1.0000   
         H         H         1.0       0.4553413586105289  0.37818301692647655           0.6410519560873521 1.0000   
         H         H         1.0       0.4128172123863255  0.29539166740772854           0.5971499050616048 1.0000   
         H         H         1.0       0.29942721190430355           0.39513966562529135          0.5779717809392055 1.0000   
         H         H         1.0       0.26741326418267314           0.3896518284046333 0.538108857749069  1.0000   
         H         H         1.0       0.33423728728060714           0.38136249452558646          0.506643709672377  1.0000   
         H         H         1.0       0.36780545189982616           0.3857997751661393 0.5484189533682792 1.0000   
         H         H         1.0       0.3739807621901495  0.4013633243754465  0.6452980271214065 1.0000   
         H         H         1.0       0.3613739102735221  0.3775200271073385  0.676442336676656  1.0000   
         H         H         1.0       0.313276584626341   0.3055931552695569  0.6246462481645986 1.0000   
         H         H         1.0       0.3258247149007242  0.3320804890280832  0.5914264529725084 1.0000   
         H         H         1.0       0.42163767495286086           0.29425737619130626          0.7122850480294718 1.0000   
         H         H         1.0       0.3800980200073714  0.3257564094206974  0.7096342484456611 1.0000   
         H         H         1.0       0.32912978007043886           0.25679567102690193          0.657313422232633  1.0000   
         H         H         1.0       0.37205835567921636           0.22706894112371942          0.660694590203491  1.0000   
         H         H         1.0       0.27259039090382337           0.34185419007105716          0.6434252769301656 1.0000   
         H         H         1.0       0.22489446500369875           0.31953280084397845          0.6341997490070321 1.0000   
         H         H         1.0       0.25929199981025836           0.23771559983001656          0.6778352363038986 1.0000   
         H         H         1.0       0.3077408848641009  0.2606485741319674  0.6875057894035675 1.0000   
         H         H         1.0       0.33151296952865394           0.30052886506746707          0.7213344735864116 1.0000   
         H         H         1.0       0.32003152369979204           0.3301115768190105 0.7553428774661992 1.0000   
         H         H         1.0       0.3086677540706065  0.41429847340340903           0.7131574734987902 1.0000   
         H         H         1.0       0.31274567104795886           0.38631560159624345          0.6785905268065096 1.0000   
         C         C         1.0       0.05053670955781393           0.3014776284971464 0.8622615109031936 1.0000   
         C         C         1.0       0.02224345201049108           0.3010746440772094 0.848962012724335  1.0000   
         C         C         1.0       0.00893869474488654           0.27377444649082716          0.8377063835811969 1.0000   
         C         C         1.0       0.02352671325284608           0.2462801967115096 0.8367590355253055 1.0000   
         C         C         1.0       0.05226770345049442           0.2472852384869986 0.8490118414319706 1.0000   
         C         C         1.0       0.0659670873631524  0.27448051975609267           0.8620540553772168 1.0000   
         H         H         1.0       0.01162465504188029           0.32486481341657525          0.8463190388752424 1.0000   
         H         H         1.0       0.4869194107813531  0.2549697701978052  0.8007902113848939 1.0000   
         H         H         1.0       0.06567381186326621           0.22645782276913493          0.8511063638659578 1.0000   
         H         H         1.0       0.08633961305656689           0.27391155186187255          0.8764583144945343 1.0000   
         C         C         1.0       0.04661629158190171           0.18446498022336372          0.8150776070470764 1.0000   
         C         C         1.0       0.5120344292334155  0.16055968050390007           0.8003046879640836 1.0000   
         C         C         1.0       0.49806557955357983           0.13099807121967552          0.7972570593949588 1.0000   
         C         C         1.0       0.50552693617893    0.10487739671722315           0.7862796455911397 1.0000   
         C         C         1.0       0.04192505948669919           0.12838076120821945          0.8027683216536732 1.0000   
         C         C         1.0       0.057124238302529586          0.15753214022691053          0.8056881548719694 1.0000   
         C         C         1.0       0.49852192917529176           0.1942635131890508 0.8045413219701341 1.0000   
         C         C         1.0       0.4773353925166482  0.20018171296031528           0.7765436644948284 1.0000   
         C         C         1.0       0.4506034037772174  0.1842101784192595  0.7675100694925413 1.0000   
         C         C         1.0       0.43560877198700765           0.1862272158771994 0.7428955668821039 1.0000   
         C         C         1.0       0.445730838110892   0.20419425608152209           0.7268639567155168 1.0000   
         C         C         1.0       0.4720479174850081  0.21925840462447685           0.7366927543471858 1.0000   
         C         C         1.0       0.48806813790631    0.2162269660569237  0.760769687263202  1.0000   
         C         C         1.0       0.49487921037237587           0.17023856776069576          0.844414863419185  1.0000   
         C         C         1.0       0.484908143510104   0.17059516259977753           0.8641202543834198 1.0000   
         C         C         1.0       0.46022152684470896           0.18643856373681333          0.8635691810264775 1.0000   
         C         C         1.0       0.44677485198801803           0.20320427533577645          0.8419404904972975 1.0000   
         C         C         1.0       0.45866586953011274           0.20593773582086974          0.8230835042513993 1.0000   
         C         C         1.0       0.48266927375420937           0.189724287026556  0.8234589474421968 1.0000   
         C         C         1.0       0.44724635833009685           0.18625641992446867          0.8856607859677231 1.0000   
         C         C         1.0       0.4071596377035377  0.09148312539033876           0.8602960596225154 1.0000   
         C         C         1.0       0.43364904802823895           0.09327937025844944          0.8777685517016234 1.0000   
         C         C         1.0       0.44579293389773206           0.12280132603085861          0.8863677406397538 1.0000   
         C         C         1.0       0.43112537394776634           0.15221216010296615          0.8789376411656313 1.0000   
         C         C         1.0       0.4053246642558854  0.14936140117803526           0.8597506768587503 1.0000   
         C         C         1.0       0.39439725127261    0.11921192685312883           0.8512023588962008 1.0000   
         C         C         1.0       0.4306424995665284  0.2178703914723375  0.8899676563571113 1.0000   
         C         C         1.0       0.4427217534145001  0.2486170300994125  0.8917234518916516 1.0000   
         C         C         1.0       0.4277257473363125  0.2742822444118508  0.895654339458706  1.0000   
         C         C         1.0       0.4005411740095877  0.27086848828701054           0.8945449059081433 1.0000   
         C         C         1.0       0.38748110136015823           0.24072337251751671          0.893189048163821  1.0000   
         C         C         1.0       0.4034959113650257  0.21492140725936415           0.8925425548832121 1.0000   
         C         C         1.0       0.46226576514038614           0.17451629589207623          0.9335144077361865 1.0000   
         C         C         1.0       0.4825217728678516  0.17077675141796594           0.9564581840207996 1.0000   
         C         C         1.0       0.5095408793658059  0.1809484266871766  0.9603027850362564 1.0000   
         C         C         1.0       0.009109712234138782          0.2443804947691414 0.9624038500878875 1.0000   
         C         C         1.0       0.4960965112444236  0.19766534796667118           0.9179579621210204 1.0000   
         C         C         1.0       0.4691348195301615  0.18684279579650784           0.9137957400378158 1.0000   
         H         H         1.0       0.055157984444712864          0.20822237681237044          0.8122699417154509 1.0000   
         H         H         1.0       0.47994479076677865           0.1260764478139917 0.8017156270737635 1.0000   
         H         H         1.0       0.49184140656474573           0.08362043067670737          0.7818405986291436 1.0000   
         H         H         1.0       0.07318625603988776           0.15825027894127178          0.7965876518767266 1.0000   
         H         H         1.0       0.4427709122429903  0.16770065815889768           0.7785062500849872 1.0000   
         H         H         1.0       0.41506937414581674           0.17356049562915798          0.7351950638289612 1.0000   
         H         H         1.0       0.47972245422869525           0.2330117717729462 0.7246004322110848 1.0000   
         H         H         1.0       0.012240517008327864          0.25024087441825044          0.789158763878261  1.0000   
         H         H         1.0       0.03489658411577808           0.20413659910440066          0.875637768841802  1.0000   
         H         H         1.0       0.49584911003013404           0.15657312361736547          0.8799763316052619 1.0000   
         H         H         1.0       0.4253427924967024  0.21207813875970197           0.8390785748700886 1.0000   
         H         H         1.0       0.44823115180876233           0.22123761929128535          0.807057969009164  1.0000   
         H         H         1.0       0.4452841892169999  0.07222507402089934           0.8860905487726238 1.0000   
         H         H         1.0       0.467727066952608   0.12536749713165393           0.8992515184371317 1.0000   
         H         H         1.0       0.3930052618794872  0.1701419056634843  0.8521052690045933 1.0000   
         H         H         1.0       0.3716482141401763  0.11882913202329776           0.8397400825596573 1.0000   
         H         H         1.0       0.46348458508138135           0.2508141690086237 0.8888349482230891 1.0000   
         H         H         1.0       0.4377987275498073  0.2973437352770623  0.8984769581854075 1.0000   
         H         H         1.0       0.36781687452357514           0.23573829733890234          0.8945040250159616 1.0000   
         H         H         1.0       0.3953721365870752  0.19094591306548286           0.8905652428795932 1.0000   
         H         H         1.0       0.4409994841256758  0.16719319326773438           0.9321501143558591 1.0000   
         H         H         1.0       0.4713673937079751  0.18539935115708944           0.4729095228847675 1.0000   
         H         H         1.0       0.01859152360208177           0.26856075738615914          0.9652726562538458 1.0000   
         H         H         1.0       0.0006218100298733696         0.2424814379375153 0.9234697755369258 1.0000   
         C         C         1.0       0.48527319750870773           0.27257724447153947          0.6644622754000857 1.0000   
         C         C         1.0       0.027362388342914924          0.289747129280045  0.6999406087045428 1.0000   
         C         C         1.0       0.04371379683565629           0.26291142434722264          0.7042844576576948 1.0000   
         C         C         1.0       0.03374111198094016           0.2321769683683426 0.7046678054532798 1.0000   
         C         C         1.0       0.0033431248382849656         0.2278170206198185 0.695011112171196  1.0000   
         C         C         1.0       0.4783910571960755  0.24102800783895711           0.6578819790393157 1.0000   
         H         H         1.0       0.034698611202612084          0.31276252714789515          0.7000343714004135 1.0000   
         H         H         1.0       0.06682098969183578           0.26539289919404935          0.7099516973551587 1.0000   
         H         H         1.0       0.49087072418294503           0.19274110191409585          0.6628608218111125 1.0000   
         H         H         1.0       0.45789156845902285           0.23565405711132492          0.6421438514829784 1.0000   
         C         C         1.0       0.025781511008063585          0.1734677849937921 0.7344828209943113 1.0000   
         C         C         1.0       0.044860849958657655          0.1731807370737313 0.721461204824165  1.0000   
         C         C         1.0       0.05907194594353493           0.14464761551600339          0.7209966664991948 1.0000   
         C         C         1.0       0.055087257447024605          0.11957411231386104          0.7342000618670886 1.0000   
         C         C         1.0       0.03395907704611811           0.11927276551556351          0.7452227486891847 1.0000   
         C         C         1.0       0.018371361074030475          0.14562445620432019          0.7436069442952585 1.0000   
         C         C         1.0       0.0572996317179503  0.2056220525800819  0.7150527644522507 1.0000   
         C         C         1.0       0.08042596554103404           0.21466524878889254          0.7428234753104037 1.0000   
         C         C         1.0       0.10504019788821181           0.1966010801085321 0.7512863169308539 1.0000   
         C         C         1.0       0.1236073457433324  0.2009430511658356  0.7757790170487598 1.0000   
         C         C         1.0       0.11784666525079324           0.2230654323198142 0.791824601200603  1.0000   
         C         C         1.0       0.096177454530955   0.2426554609893301  0.7828135650672684 1.0000   
         C         C         1.0       0.07649705775860023           0.23864763560267513          0.7591822874557678 1.0000   
         C         C         1.0       0.04890518406094305           0.18669590044147666          0.6697020085453418 1.0000   
         C         C         1.0       0.05749045039691283           0.1800249199056912 0.6494701834617412 1.0000   
         C         C         1.0       0.08369042643121521           0.19066474691212557          0.6491448739576506 1.0000   
         C         C         1.0       0.10244254735989453           0.2053327605660477 0.6708871646679354 1.0000   
         C         C         1.0       0.09373037883553734           0.21023895165777687          0.6916789425602212 1.0000   
         C         C         1.0       0.06757153298145915           0.2011813284771726 0.6919348961748872 1.0000   
         C         C         1.0       0.09599149392590267           0.17855830164223752          0.6269119009949694 1.0000   
         C         C         1.0       0.1148125405095357  0.08027132787132296           0.6515388519394416 1.0000   
         C         C         1.0       0.09112038016864134           0.08647631871940734          0.6313104544197844 1.0000   
         C         C         1.0       0.08285493125206117           0.1166438973686543 0.6250267631252394 1.0000   
         C         C         1.0       0.10217025673351753           0.14172893222359306          0.6353704137524395 1.0000   
         C         C         1.0       0.12467941008872756           0.13625240166641922          0.6567711978648384 1.0000   
         C         C         1.0       0.13181283045510842           0.10498959279363233          0.6640445758884036 1.0000   
         C         C         1.0       0.12306951891732815           0.19789183285199377          0.6261350558164668 1.0000   
         C         C         1.0       0.12010162462339719           0.23039261255031848          0.623796475363654  1.0000   
         C         C         1.0       0.14245556778426646           0.24854840601114586          0.622435786825505  1.0000   
         C         C         1.0       0.16770594629369623           0.23478155371768955          0.6231165980190323 1.0000   
         C         C         1.0       0.17035617184687402           0.20139900982725645          0.6254492348464565 1.0000   
         C         C         1.0       0.14726249996193225           0.18408054652553857          0.6256623685645968 1.0000   
         C         C         1.0       0.08225879670123265           0.1614043340504835 0.5799230366873737 1.0000   
         C         C         1.0       0.06839213472262483           0.16632544118562928          0.5549658373200463 1.0000   
         C         C         1.0       0.047804278468129874          0.1891179614945114 0.5472812463905908 1.0000   
         C         C         1.0       0.03956430449618502           0.20491328215125149          0.565652265939388  1.0000   
         C         C         1.0       0.054977192421761426          0.20218165989177642          0.5912536657337651 1.0000   
         C         C         1.0       0.07614520890938614           0.17912110612706625          0.5985347566230835 1.0000   
         H         H         1.0       0.01936974562408544           0.19615910827393085          0.7406744274590271 1.0000   
         H         H         1.0       0.07517733770127262           0.14094408861540025          0.711920411994037  1.0000   
         H         H         1.0       0.07079406745472515           0.10145468369732012          0.7364227380248396 1.0000   
         H         H         1.0       0.48827887468128806           0.13634312622518163          0.7296760508341101 1.0000   
         H         H         1.0       0.11267785253496801           0.1790487169645411 0.7413908063724414 1.0000   
         H         H         1.0       0.14128762875152662           0.1843255355949094 0.7808073927133308 1.0000   
         H         H         1.0       0.09001679842507125           0.25670380032439744          0.7953638507096581 1.0000   
         H         H         1.0       0.057516060633489054          0.25192188610592187          0.7547150803205427 1.0000   
         H         H         1.0       0.027523379927324627          0.17829269099757636          0.6687528055797113 1.0000   
         H         H         1.0       0.04222892253684616           0.16691002452178816          0.6330247691685137 1.0000   
         H         H         1.0       0.12410805264226661           0.2126498941855165 0.6734784697468197 1.0000   
         H         H         1.0       0.1084564202706203  0.225559394013809   0.7070556599208562 1.0000   
         H         H         1.0       0.07601562960230812           0.06651342628210163          0.6205991268170216 1.0000   
         H         H         1.0       0.064686893798896   0.11853105712223959           0.6078105930642321 1.0000   
         H         H         1.0       0.13969220720516942           0.1552443952130706 0.6669763170467047 1.0000   
         H         H         1.0       0.1501693653605516  0.10145682252549919           0.6800678581769438 1.0000   
         H         H         1.0       0.10066954559431861           0.24372302832110185          0.6199941398287535 1.0000   
         H         H         1.0       0.13987545316890787           0.2729426310260916 0.6213570158258324 1.0000   
         H         H         1.0       0.18835237998320845           0.1868759125320977 0.6249963552248403 1.0000   
         H         H         1.0       0.14966187707613712           0.1577516008974596 0.6257121536141546 1.0000   
         H         H         1.0       0.09690139870758635           0.14065904577339983          0.5849864529577895 1.0000   
         H         H         1.0       0.07441569567412516           0.14984090431796374          0.5424204622845521 1.0000   
         H         H         1.0       0.019887804978970344          0.21974211106305536          0.5593030126708728 1.0000   
         H         H         1.0       0.04858636984066706           0.21691423626273817          0.60416923893802   1.0000   
         C         C         1.0       0.008781308733971944          0.16896240569913312          0.5085159815807702 1.0000   
         C         C         1.0       0.03221414468439972           0.1960877543368668 0.5190665504094998 1.0000   
         H         H         1.0       0.9928567748747039  0.1698607029368005  0.5191053035796237 1.0000   
         H         H         1.0       0.018992369237031917          0.14467673884419305          0.5124892381040698 1.0000   
         H         H         1.0       0.04610864815545609           0.19617999622530796          0.5071575209278606 1.0000   
         H         H         1.0       0.021472396717196064          0.21933020114653287          0.5176066498695913 1.0000   
         C         C         1.0       0.03145138612449149           0.09348177068386603          0.7635567627724897 1.0000   
         C         C         1.0       0.5352321179132056  0.08006476607409262           0.7628146219468882 1.0000   
         H         H         1.0       0.009240828604995508          0.09119415064914747          0.7642560093863339 1.0000   
         H         H         1.0       0.035904127676059786          0.07043683688570303          0.7558082095991925 1.0000   
         H         H         1.0       0.5305745461086262  0.058147809744705584         0.7701737862512524 1.0000   
         H         H         1.0       0.07262203954197544           0.09724528446737127          0.7919070559401346 1.0000   
         C         C         1.0       0.20950352708660672           0.2625534773194495 0.6519454650156755 1.0000   
         C         C         1.0       0.19223001083363273           0.25476385375384186          0.6249055804098087 1.0000   
         H         H         1.0       0.21425777018246894           0.23987378715616356          0.6621505901954314 1.0000   
         H         H         1.0       0.19778442147866854           0.2769266685242064 0.661262241625494  1.0000   
         H         H         1.0       0.1882336088031085  0.2785812090008238  0.6143352045154004 1.0000   
         H         H         1.0       0.20401797854521417           0.24144813606638044          0.6137994212014413 1.0000   
         C         C         1.0       0.4624414986877867  0.29880235101955316           0.6563639235570085 1.0000   
         C         C         1.0       0.4635465712019296  0.31435613810565366           0.6323115933562181 1.0000   
         H         H         1.0       0.46520490461918745           0.31908055415432834          0.6705108423687149 1.0000   
         H         H         1.0       0.44021246658048746           0.28921189394765573          0.6538708041296982 1.0000   
         H         H         1.0       0.4652733780527958  0.29491252818506647           0.6184138342020069 1.0000   
         H         H         1.0       0.48307369296875785           0.32628663995250207          0.6343986123919713 1.0000   
         C         C         1.0       0.42610859502959775           0.23838192880543188          0.6861235396542521 1.0000   
         C         C         1.0       0.43059938216904153           0.20529855374356762          0.699275594312107  1.0000   
         H         H         1.0       0.4241408124429229  0.2342681831070926  0.6661727125376777 1.0000   
         H         H         1.0       0.44639333687004756           0.25057387472696985          0.695005001982048  1.0000   
         H         H         1.0       0.44718239679184996           0.19343703294501305          0.6917751148174605 1.0000   
         H         H         1.0       0.41268565450281425           0.1879205403493833 0.6931639685928934 1.0000   
         C         C         1.0       0.07047678865461458           0.3578865623018228 0.8605599293693593 1.0000   
         C         C         1.0       0.06529906670751946           0.3319375732469514 0.8769437421889159 1.0000   
         H         H         1.0       0.06656840628683469           0.3500870557245957 0.8394205101442004 1.0000   
         H         H         1.0       0.053410214900650343          0.3774957146874909 0.8573785273650569 1.0000   
         H         H         1.0       0.054497526317395885          0.3413021237688445 0.8899678638819974 1.0000   
         H         H         1.0       0.08598192357462185           0.32461338403900364          0.8897080982215276 1.0000   
         C         C         1.0       0.3687255409866216  0.3141210722114736  0.8686307224717226 1.0000   
         C         C         1.0       0.3844740027787989  0.3017648096359146  0.894281403687234  1.0000   
         H         H         1.0       0.37241013700094405           0.3015193021754346 0.8529270578176545 1.0000   
         H         H         1.0       0.3772212266041987  0.33759131095744677           0.8675200631648721 1.0000   
         H         H         1.0       0.39817681776237945           0.3216392056333832 0.9039015625386986 1.0000   
         H         H         1.0       0.36970029282654077           0.3005013044557274 0.9062270770990171 1.0000   
         C         C         1.0       0.13805698623898857           0.22985072042806007          0.8187259993063469 1.0000   
         C         C         1.0       0.17073121805247007           0.22253964404439552          0.8241136947637537 1.0000   
         H         H         1.0       0.13539579550144723           0.25493552605832076          0.8260305431104413 1.0000   
         H         H         1.0       0.1286285603085661  0.21705353642368988           0.8319118976027897 1.0000   
         H         H         1.0       0.17653081246836724           0.20066202385840937          0.8136396249084775 1.0000   
         H         H         1.0       0.1802058361543257  0.2121222787866462  0.842174751064284  1.0000   
         C         C         1.0       0.2493598834523021  0.35932647877638296           0.4888343493651052 1.0000   
         C         C         1.0       0.2757316429252499  0.3811158236580141  0.49307151514547043          1.0000   
         H         H         1.0       0.25403883237082847           0.3345896216392549 0.49469464460622325          1.0000   
         H         H         1.0       0.2381568344087079  0.3692660076298343  0.500380624758177  1.0000   
         H         H         1.0       0.2726901535092482  0.44871492203799906           0.9964021603637065 1.0000   
         H         H         1.0       0.2776761784609793  0.4107971842472667  0.9866505385728425 1.0000   
         C         C         1.0       0.267874594612766   0.39203918216577593           0.7457881378586267 1.0000   
         C         C         1.0       0.30098227245134646           0.3903768458068979 0.754650906682483  1.0000   
         H         H         1.0       0.25897721115709976           0.37977330044190105          0.7267159172861957 1.0000   
         H         H         1.0       0.25792423380453217           0.41585055878092925          0.7417314261994967 1.0000   
         H         H         1.0       0.30941945203555943           0.3763877881301206 0.771548696489308  1.0000   
         H         H         1.0       0.3120378860792131  0.4142104043104882  0.7579850719808736 1.0000   
         C         C         1.0       0.10710345374361056           0.026406232000473134         0.669292240771899  1.0000   
         C         C         1.0       0.12439368927364299           0.04576378206792559          0.6565149612641878 1.0000   
         H         H         1.0       0.08591821373192324           0.03789129353142631          0.6641559700731977 1.0000   
         H         H         1.0       0.11610508011704794           0.02755143117911055          0.6898242348840897 1.0000   
         H         H         1.0       0.12414184459146674           0.033413850963385956         0.6395776595104345 1.0000   
         H         H         1.0       0.14664736785615157           0.04618146653482969          0.6676968173208444 1.0000   
         C         C         1.0       0.3780669446052631  0.039992027746606894         0.8626283006108619 1.0000   
         C         C         1.0       0.3961632763624128  0.05696438681620515           0.8493977582260211 1.0000   
         H         H         1.0       0.35864806134451077           0.03221865187980727          0.8479750245008416 1.0000   
         H         H         1.0       0.37017116039432907           0.05657410830179693          0.8736550522239598 1.0000   
         H         H         1.0       0.38511314920598366           0.06074769904467737          0.8292662629006307 1.0000   
         H         H         1.0       0.4126387164617372  0.040121173640226555         0.8469689610842855 1.0000   
         C         C         1.0       0.48528379426242    0.8794129376781507  0.521690972574041  1.0000   
         C         C         1.0       0.03069900664148226           0.8889319829720894 0.5242859470321087 1.0000   
         H         H         1.0       0.48339559103227087           0.8963404618628544 0.5362222757487148 1.0000   
         H         H         1.0       0.48105533112288057           0.8539137852361957 0.5268587549374791 1.0000   
         H         H         1.0       0.02323245545970792           0.865973417253227  0.5157750219448958 1.0000   
         H         H         1.0       0.04426128329741889           0.8983224816231945 0.5135810623150285 1.0000   
         C         C         1.0       0.06393050568423542           0.8926951549932182 0.7940476689289518 1.0000   
         C         C         1.0       0.03263717214676704           0.9023331327580068 0.7881943771311448 1.0000   
         H         H         1.0       0.07340297461994759           0.8799787971849973 0.8125740545441349 1.0000   
         H         H         1.0       0.07927571191537766           0.9126397037990797 0.7959916240879347 1.0000   
         H         H         1.0       0.02111719196283402           0.9014699810305107 0.7679492179824018 1.0000   
         H         H         1.0       0.0301614022742651  0.9281396555270249  0.7921974999403193 1.0000   
         C         C         1.0       0.3706321138637812  0.5474463998513075  0.6241108272331823 1.0000   
         C         C         1.0       0.36019013496982133           0.5298669965600113 0.5995488304349581 1.0000   
         H         H         1.0       0.39340009250963087           0.5428071507573573 0.6343335099523055 1.0000   
         H         H         1.0       0.35823957844468746           0.537157710047242  0.635910183184361  1.0000   
         H         H         1.0       0.37370040228557566           0.5398818900889386 0.5880016085359783 1.0000   
         H         H         1.0       0.33947132081802683           0.534466248639166  0.587497090932327  1.0000   
         C         C         1.0       0.20508148869463325           0.8036121282345621 0.6668672982307002 1.0000   
         C         C         1.0       0.19684081000669756           0.8158688255874023 0.6402519489741392 1.0000   
         H         H         1.0       0.2100776977529844  0.824990171635505   0.6796219130276611 1.0000   
         H         H         1.0       0.18442049243077666           0.7936497224081466 0.6674256538332243 1.0000   
         H         H         1.0       0.19623650455425692           0.7953911724263882 0.6278821864736269 1.0000   
         H         H         1.0       0.21422643308425052           0.8298218160083819 0.6374925534225651 1.0000   
         C         C         1.0       0.45648747895382713           0.7780796002020123 0.6882557712018019 1.0000   
         C         C         1.0       0.4506642833929796  0.7620872276314624  0.6622207747979558 1.0000   
         H         H         1.0       0.44044806976026346           0.7975983744194509 0.6858811499948769 1.0000   
         H         H         1.0       0.4524614476329871  0.7616927852517963  0.702349271662136  1.0000   
         H         H         1.0       0.46620687378491715           0.7425923721375103 0.6632696195002841 1.0000   
         H         H         1.0       0.4524253683929927  0.7795266757422892  0.6479829622379351 1.0000   
         C         C         1.0       0.3802249389029469  0.7632613357017048  0.7977018716418938 1.0000   
         C         C         1.0       0.3814330583433828  0.8000438702375008  0.8023813420134576 1.0000   
         H         H         1.0       0.37706003146948697           0.7525227192369306 0.8136365142435326 1.0000   
         H         H         1.0       0.40006478242321536           0.7521833996489623 0.7969358904353202 1.0000   
         H         H         1.0       0.37284547657340184           0.8123222883829893 0.7839098295298002 1.0000   
         H         H         1.0       0.36624531945328503           0.8087072022348559 0.8112484351094646 1.0000   
         C         C         1.0       0.20653262806049547           0.5275651186369107 0.8448219482960804 1.0000   
         C         C         1.0       0.18800392824774986           0.5576299509609848 0.8371946894078807 1.0000   
         H         H         1.0       0.2296341010039809  0.5344085851260968  0.8529135805864435 1.0000   
         H         H         1.0       0.2049279132593489  0.5161792319996271  0.8268929990591661 1.0000   
         H         H         1.0       0.16593996084063029           0.5495181020747864 0.8324595128989358 1.0000   
         H         H         1.0       0.18923563160104825           0.5650652979598249 0.8184563875545523 1.0000   
         C         C         1.0       0.08120746136961178           0.7423046193711396 0.8740273783216511 1.0000   
         C         C         1.0       0.09960570256828048           0.7367463765614234 0.9016473950990436 1.0000   
         H         H         1.0       0.07608519255966742           0.7176785376614272 0.8650216720293753 1.0000   
         H         H         1.0       0.09511344864916191           0.7526427472255378 0.8642949467056276 1.0000   
         H         H         1.0       0.08749415803915003           0.7233507392276995 0.9108048918231518 1.0000   
         H         H         1.0       0.10131479356395397           0.7602461477183372 0.9108901443227043 1.0000   
         C         C         1.0       0.30949801160728935           0.8351054321418956 0.8608008598279353 1.0000   
         C         C         1.0       0.32814092310030474           0.8371816342360705 0.8877353547037655 1.0000   
         H         H         1.0       0.3198844280230376  0.8456132149617942  0.8474218599400571 1.0000   
         H         H         1.0       0.29312104042763865           0.8529047763501169 0.8581320455026172 1.0000   
         H         H         1.0       0.31544367044882615           0.8466307418947724 0.8987705996120877 1.0000   
         H         H         1.0       0.33147501678327    0.8114440937664166  0.8939256729441591 1.0000   
         C         C         1.0       0.17458589669305724           0.7116381170499987 0.7163377876643409 1.0000   
         C         C         1.0       0.14144386547143123           0.7082562223599514 0.7099385388205818 1.0000   
         H         H         1.0       0.1802179637013891  0.6894353495004977  0.7064228350752614 1.0000   
         H         H         1.0       0.17688718502019612           0.7323694213390374 0.705412327501176  1.0000   
         H         H         1.0       0.13512453764921084           0.6893759182205644 0.7198872310291973 1.0000   
         H         H         1.0       0.13384432429361579           0.69636609952334   0.6916220835486405 1.0000   
         C         C         1.0       0.2721843840362616  0.6785628121636906  0.50824616364927   1.0000   
         C         C         1.0       0.26744069321781716           0.7082368961503988 0.5227105808226488 1.0000   
         H         H         1.0       0.2941985453874177  0.6775777960247416  0.508761001994849  1.0000   
         H         H         1.0       0.27039308423421976           0.656515273218403  0.5174399288245156 1.0000   
         H         H         1.0       0.24641958510309803           0.7057322023871975 0.5240315739233026 1.0000   
         H         H         1.0       0.26956118224755676           0.7308873893900327 0.5124264802567793 1.0000   
         C         C         1.0       0.28393518571701165           0.5939302252065987 0.7597913232172465 1.0000   
         C         C         1.0       0.30549470334494816           0.5991530448671168 0.7867531944629773 1.0000   
         H         H         1.0       0.2627135982282803  0.5893737149033648  0.7602041112617324 1.0000   
         H         H         1.0       0.28872938664265324           0.5697700620479453 0.7524412776875683 1.0000   
         H         H         1.0       0.32805160998808347           0.5995019829472306 0.7858695368033797 1.0000   
         H         H         1.0       0.3034973761351617  0.5761328169805512  0.7964897893117966 1.0000   
         C         C         1.0       0.7867564906519656  0.7964486039407247  0.3575801089146588 1.0000   
         C         C         1.0       0.7578015959647817  0.7959450892584399  0.34601204420853693          1.0000   
         C         C         1.0       0.744468081510383   0.7689063939706345  0.3338977364041022 1.0000   
         C         C         1.0       0.759408281542322   0.7394546484856522  0.33456351852705724          1.0000   
         C         C         1.0       0.786889561317938   0.7396415504609425  0.348034729334338  1.0000   
         C         C         1.0       0.8018254743033604  0.7684871401472851  0.35834529953244687          1.0000   
         H         H         1.0       0.7456352063682443  0.817899245518604   0.341207763626557  1.0000   
         H         H         1.0       0.7229308438152979  0.7712876871467773  0.32690756123453313          1.0000   
         H         H         1.0       0.7979087790175349  0.7169489040348637  0.34959562001959055          1.0000   
         H         H         1.0       0.8236867013481277  0.7666607130468784  0.37017933408013526          1.0000   
         C         C         1.0       0.7754421504477073  0.6762019961723467  0.3087546933672205 1.0000   
         C         C         1.0       0.7550921896547106  0.6747690322013148  0.3206619880496326 1.0000   
         C         C         1.0       0.7443018540933909  0.6446172592552882  0.32265711454240864          1.0000   
         C         C         1.0       0.7520528248380168  0.6178777681319477  0.31214750601151   1.0000   
         C         C         1.0       0.7696541099794931  0.6194310145335128  0.29831505916344486          1.0000   
         C         C         1.0       0.7822163038213653  0.6478522976552076  0.2973593965638834 1.0000   
         C         C         1.0       0.7402785126027956  0.7071771241620032  0.32500814969744307          1.0000   
         C         C         1.0       0.7208948857519744  0.711042807007007   0.2963100990043811 1.0000   
         C         C         1.0       0.696197433152397   0.6920632620159112  0.28567460505488296          1.0000   
         C         C         1.0       0.6794137443116208  0.6976198154392392  0.2623266601087627 1.0000   
         C         C         1.0       0.6863097266007739  0.7182259027532493  0.24633864568304265          1.0000   
         C         C         1.0       0.7111445993347146  0.7361780344220572  0.2564450284745138 1.0000   
         C         C         1.0       0.7273027629139094  0.7334032661808599  0.28063798569107434          1.0000   
         C         C         1.0       0.7437053567036567  0.6987832264622956  0.37001872119294843          1.0000   
         C         C         1.0       0.7333810721301125  0.6953608186672763  0.38982504987278815          1.0000   
         C         C         1.0       0.7047342750611661  0.7016659074859473  0.38685145491575873          1.0000   
         C         C         1.0       0.6875821684554875  0.7104723572641715  0.3634689602319116 1.0000   
         C         C         1.0       0.6986219733178668  0.711364136401248   0.34442457433961715          1.0000   
         C         C         1.0       0.7263058015577089  0.7051416689498208  0.3466868825613349 1.0000   
         C         C         1.0       0.6918814138795742  0.6939174760802754  0.40873916962777757          1.0000   
         C         C         1.0       0.6750814936121449  0.5888121284993483  0.3978107586318889 1.0000   
         C         C         1.0       0.7022510763563983  0.6021665968222397  0.40923640110192394          1.0000   
         C         C         1.0       0.70713656632153    0.6344866076418016  0.4109655589585537 1.0000   
         C         C         1.0       0.6852428262593657  0.6566511178320673  0.4016511105926469 1.0000   
         C         C         1.0       0.659083406286727   0.6436436768135954  0.38903893344392604          1.0000   
         C         C         1.0       0.6545178650403883  0.611146995454459   0.38635675149393284          1.0000   
         C         C         1.0       0.6659374084225289  0.7177057746832717  0.40816148313480405          1.0000   
         C         C         1.0       0.6655780506272797  0.7493400475074423  0.4021781111854106 1.0000   
         C         C         1.0       0.641950047858511   0.7670863299217003  0.39905700724161264          1.0000   
         C         C         1.0       0.6196504500728228  0.7560004502134117  0.4057969563785109 1.0000   
         C         C         1.0       0.621596423757802   0.7250182170049501  0.4154263481414015 1.0000   
         C         C         1.0       0.6445015038652826  0.7068808493056424  0.41729933342099645          1.0000   
         C         C         1.0       0.7094401203315224  0.6840232438346859  0.45561807605993465          1.0000   
         C         C         1.0       0.7218907690202941  0.6935697462142338  0.4798453896712899 1.0000   
         C         C         1.0       0.7387698224581083  0.7203336912589926  0.48535462301511395          1.0000   
         C         C         1.0       0.7435340227886102  0.7377538958471497  0.46685413954473776          1.0000   
         C         C         1.0       0.7294582245733657  0.7288801916582976  0.4423763456038109 1.0000   
         C         C         1.0       0.712958862127963   0.701364163995717   0.4358671957606588 1.0000   
         H         H         1.0       0.7826750060140666  0.6990721009475318  0.3050828019564037 1.0000   
         H         H         1.0       0.7287405703458706  0.6397668927250606  0.3316771551697971 1.0000   
         H         H         1.0       0.7430223842309138  0.5960872172015695  0.3149785201214893 1.0000   
         H         H         1.0       0.7989270175413988  0.649933965747302   0.2888587385531949 1.0000   
         H         H         1.0       0.6921597521081883  0.675129366608852   0.29627151074937413          1.0000   
         H         H         1.0       0.6606438718167904  0.6839962945773923  0.2541627227974773 1.0000   
         H         H         1.0       0.7209805443816922  0.7502667939735235  0.24586007157418738          1.0000   
         H         H         1.0       0.7447306139274893  0.7486627266725789  0.28479637674281233          1.0000   
         H         H         1.0       0.7662373176557896  0.6949396670327505  0.37248913222318686          1.0000   
         H         H         1.0       0.7471086648947007  0.6875453490359841  0.4081627371288666 1.0000   
         H         H         1.0       0.6643188831763249  0.7131192686157932  0.3590447596648201 1.0000   
         H         H         1.0       0.684217132256941   0.7161003736782675  0.3265292710649991 1.0000   
         H         H         1.0       0.7170675325759774  0.5855789119592191  0.4204147549162058 1.0000   
         H         H         1.0       0.7274070993707993  0.6456113805175074  0.42139292275896256          1.0000   
         H         H         1.0       0.6404865603321118  0.6593339074793924  0.3820891775023513 1.0000   
         H         H         1.0       0.6339248860195682  0.6012490777014067  0.37641430325199465          1.0000   
         H         H         1.0       0.684097981345448   0.7595996253797691  0.39874427762767595          1.0000   
         H         H         1.0       0.6412036556157185  0.7913755980406948  0.3923681946740878 1.0000   
         H         H         1.0       0.6052439773153705  0.7134419836340634  0.4203718632740926 1.0000   
         H         H         1.0       0.644614238590686   0.6818908486661249  0.4228109142506644 1.0000   
         H         H         1.0       0.692602964992282   0.6660615833157273  0.4527612328449906 1.0000   
         H         H         1.0       0.7193461428134389  0.6802077557925285  0.49590904267487135          1.0000   
         H         H         1.0       0.7571655407469261  0.7588501887841441  0.4684076152598661 1.0000   
         H         H         1.0       0.7288999582057718  0.7445131351118184  0.42762447770626555          1.0000   
         C         C         1.0       0.7268145133107141  0.7842282084061368  0.17930071126348776          1.0000   
         C         C         1.0       0.7544158397093796  0.7907650231281282  0.19530729894749646          1.0000   
         C         C         1.0       0.7707650632343268  0.766455259698776   0.20793129744289157          1.0000   
         C         C         1.0       0.762239393450667   0.7337285752656876  0.2035003403559744 1.0000   
         C         C         1.0       0.7353060477917787  0.7283622201110955  0.1874755063273201 1.0000   
         C         C         1.0       0.7176151018260911  0.7529870813487988  0.17558716274077396          1.0000   
         H         H         1.0       0.7620032523192104  0.815703178057897   0.201945297205004  1.0000   
         H         H         1.0       0.7907889226678774  0.7722438318720444  0.22068069778285337          1.0000   
         H         H         1.0       0.727400731659397   0.7039625723612896  0.1833953983845093 1.0000   
         H         H         1.0       0.6957718251900293  0.7454994594587754  0.16455534132872063          1.0000   
         C         C         1.0       0.7465400351544689  0.6739112057841092  0.22841691820802137          1.0000   
         C         C         1.0       0.7690790164888104  0.673143349036791   0.2202434108195607 1.0000   
         C         C         1.0       0.7804917219684165  0.6422977659518126  0.2178361938813174 1.0000   
         C         C         1.0       0.7731125950798333  0.6149518782336085  0.2272335653704123 1.0000   
         C         C         1.0       0.7523609906904849  0.6177024760654124  0.23844297347081725          1.0000   
         C         C         1.0       0.7378063096520561  0.64682418858845    0.23764042035868466          1.0000   
         C         C         1.0       0.7842271177082984  0.7044339402190092  0.2148624543078828 1.0000   
         C         C         1.0       0.8036065547391938  0.7110154785488412  0.24266611831538926          1.0000   
         C         C         1.0       0.8294968990361626  0.6946663072376551  0.2526525209516512 1.0000   
         C         C         1.0       0.8481346455402804  0.703369460024913   0.2759052451369819 1.0000   
         C         C         1.0       0.8421182731585063  0.7298193825279634  0.28934659026543835          1.0000   
         C         C         1.0       0.8156164701727671  0.7420878192444015  0.2804644252371325 1.0000   
         C         C         1.0       0.795716883343548   0.7319786577932387  0.25830012551959375          1.0000   
         C         C         1.0       0.78373133398923    0.6851544469058195  0.17206501530492357          1.0000   
         C         C         1.0       0.7951217304667153  0.6825488128960748  0.15332224162564312          1.0000   
         C         C         1.0       0.822643205110529   0.6925144555672711  0.15642930446604864          1.0000   
         C         C         1.0       0.8373681030728972  0.7084719224874959  0.17976285145562104          1.0000   
         C         C         1.0       0.8251639627951662  0.7123967986903499  0.1978472320230448 1.0000   
         C         C         1.0       0.79863961308572    0.6999752981832371  0.19509937389116055          1.0000   
         C         C         1.0       0.8364643585401424  0.68528326586067    0.13512019253475924          1.0000   
         C         C         1.0       0.855402880119896   0.585901175513055   0.15609318238489395          1.0000   
         C         C         1.0       0.8321636492767948  0.5939154273802755  0.13585830138092925          1.0000   
         C         C         1.0       0.8273514614958812  0.6253443533586498  0.12936163161680614          1.0000   
         C         C         1.0       0.844733274292069   0.6498740901362385  0.14195604454222419          1.0000   
         C         C         1.0       0.8679926658599418  0.6416569400192651  0.16373711769256732          1.0000   
         C         C         1.0       0.8736066569366931  0.6091763649572934  0.1700201499395097 1.0000   
         C         C         1.0       0.8608340231049968  0.7108614668804155  0.13807764817586937          1.0000   
         C         C         1.0       0.8567418883533434  0.7430273505425352  0.1409083901051269 1.0000   
         C         C         1.0       0.8769608314635856  0.7665317036883478  0.14414960619199302          1.0000   
         C         C         1.0       0.9050382991224892  0.7556464776015277  0.14756800083645252          1.0000   
         C         C         1.0       0.908626386298799   0.7234852110963799  0.14274973373090036          1.0000   
         C         C         1.0       0.8875415951045719  0.7011230673015613  0.13765776229466847          1.0000   
         C         C         1.0       0.8298412589590919  0.673402743599932   0.08906235333943054          1.0000   
         C         C         1.0       0.8151551148702068  0.6748674946337956  0.06429093914329737          1.0000   
         C         C         1.0       0.789059971965669   0.6895013622154863  0.05665955970512719          1.0000   
         C         C         1.0       0.7791512627579344  0.7049516713806333  0.07421579490641304          1.0000   
         C         C         1.0       0.79426726209622    0.7054022571426523  0.09965452226622817          1.0000   
         C         C         1.0       0.8210912553707086  0.6888258134472534  0.10703546249643378          1.0000   
         H         H         1.0       0.7402864898134522  0.6974105636611861  0.23250253756201136          1.0000   
         H         H         1.0       0.7971987489246966  0.6385116441510323  0.2102040151015592 1.0000   
         H         H         1.0       0.7823066502244534  0.5916216747226787  0.22470345704360872          1.0000   
         H         H         1.0       0.7221911371174571  0.647992405790903   0.24742434883241635          1.0000   
         H         H         1.0       0.8345203026951036  0.6762070167436365  0.2406960591587591 1.0000   
         H         H         1.0       0.869798126347333   0.6923241096394398  0.2836559603105501 1.0000   
         H         H         1.0       0.8073467081649005  0.7601335706379659  0.29028699671430624          1.0000   
         H         H         1.0       0.7741443906380253  0.7428693329752489  0.2528979813647401 1.0000   
         H         H         1.0       0.7631595847375606  0.6745200831388019  0.17043030619573002          1.0000   
         H         H         1.0       0.7828072787001895  0.6693543320616324  0.13606204230628297          1.0000   
         H         H         1.0       0.8578202483611614  0.7194292011221866  0.18377736346518564          1.0000   
         H         H         1.0       0.8371959287471594  0.723155236916574   0.2156447654626191 1.0000   
         H         H         1.0       0.817485055441067   0.5760151181545377  0.1254047634087937 1.0000   
         H         H         1.0       0.8090256497722094  0.6278391234510153  0.11274752092300117          1.0000   
         H         H         1.0       0.8809707805479475  0.6618081954022496  0.17292515817182072          1.0000   
         H         H         1.0       0.8925419755216534  0.6023794693938266  0.18273032909426215          1.0000   
         H         H         1.0       0.8346846072222763  0.7511950475934794  0.13794522417253707          1.0000   
         H         H         1.0       0.873497534625064   0.7915340364117661  0.14870634268111   1.0000   
         H         H         1.0       0.9304511706984735  0.714092947056859   0.1449739706255501 1.0000   
         H         H         1.0       0.8906050925383479  0.6761436181196616  0.13281313008500736          1.0000   
         H         H         1.0       0.8484404589791241  0.6593769051819609  0.09506299028298809          1.0000   
         H         H         1.0       0.8222548774326784  0.6583474805974147  0.051781623953486254         1.0000   
         H         H         1.0       0.7578456068508939  0.7141018147083055  0.06675807071607755          1.0000   
         H         H         1.0       0.7855379174276179  0.7173097435114921  0.11321676705007795          1.0000   
         C         C         1.0       0.8860697301356617  0.9923858656966507  0.3802489875444521 1.0000   
         C         C         1.0       0.8990620860796965  0.9929729583004183  0.4055351933773847 1.0000   
         C         C         1.0       0.9097262826408817  0.9643228923464106  0.41679224520136654          1.0000   
         C         C         1.0       0.9119938357938115  0.9365117388729625  0.4034493242042194 1.0000   
         C         C         1.0       0.8981845165504082  0.9371204910151505  0.3779310107105732 1.0000   
         C         C         1.0       0.8859007258584289  0.9646318188479174  0.36633914625172714          1.0000   
         H         H         1.0       0.8989528086853711  0.0148087337860468  0.416837136211367  1.0000   
         H         H         1.0       0.9168704029376015  0.9623267767058421  0.4364618269747785 1.0000   
         H         H         1.0       0.8970796524360484  0.9139083367619858  0.3692478058641219 1.0000   
         H         H         1.0       0.8777011390150483  0.9632110393379081  0.3455716375073767 1.0000   
         C         C         1.0       0.8778412650351798  0.8899099055236898  0.4245740817237046 1.0000   
         C         C         1.0       0.8965936705220304  0.8838027284732823  0.4117140448537685 1.0000   
         C         C         1.0       0.8886949847377287  0.85741231562208    0.39400989105876844          1.0000   
         C         C         1.0       0.8626417878464926  0.8430529507808255  0.38783809593830393          1.0000   
         C         C         1.0       0.8450112365734306  0.850130956681124   0.4013849242834798 1.0000   
         C         C         1.0       0.8529514580737521  0.8737099809238371  0.41995859862579316          1.0000   
         C         C         1.0       0.9253834577344144  0.9036235039253517  0.4169347249552817 1.0000   
         C         C         1.0       0.9433505407823842  0.9091871686209178  0.4452759183673709 1.0000   
         C         C         1.0       0.9397792048306446  0.8885289714086969  0.4636211018238009 1.0000   
         C         C         1.0       0.9591356594431542  0.8875820672971677  0.4872579030755788 1.0000   
         C         C         1.0       0.981417337254096   0.9093551598921654  0.4930202524395892 1.0000   
         C         C         1.0       0.9843652120156832  0.9302264710706428  0.47574145560024056          1.0000   
         C         C         1.0       0.9663434539303315  0.9300555823019158  0.4526526866169252 1.0000   
         C         C         1.0       0.9586358125518051  0.9001714818853943  0.3921713404673359 1.0000   
         C         C         1.0       0.9737609246280745  0.8849246288180255  0.3787935786951178 1.0000   
         C         C         1.0       0.9792065628852538  0.8516831649617602  0.3828317359342166 1.0000   
         C         C         1.0       0.9710193649846413  0.836541632218249   0.4016496160269451 1.0000   
         C         C         1.0       0.9551191531995306  0.8528771697465223  0.413287809019563  1.0000   
         C         C         1.0       0.9463911731037338  0.8837977206745574  0.40659279514420854          1.0000   
         C         C         1.0       0.9911384114155016  0.8297798200449963  0.3645587794629793 1.0000   
         C         C         1.0       0.9102594698288594  0.7846762470429044  0.32040616397645616          1.0000   
         C         C         1.0       0.9182444017833805  0.814780089162134   0.31423692489475874          1.0000   
         C         C         1.0       0.9428511889978933  0.829652876848792   0.32910114422239783          1.0000   
         C         C         1.0       0.9620450273443348  0.8141750491703504  0.3484344820288454 1.0000   
         C         C         1.0       0.9537516896594702  0.7842797969383567  0.3541973340074859 1.0000   
         C         C         1.0       0.9285856243906726  0.7693732431594636  0.34078373806665196          1.0000   
         C         C         1.0       0.49834871143429    0.8227863503121904  0.3562274947082211 1.0000   
         C         C         1.0       0.5223006906654659  0.840916370666429   0.36755141237995564          1.0000   
         C         C         1.0       0.5494340361479272  0.8292166497459462  0.37339655196366445          1.0000   
         C         C         1.0       0.5521853046124156  0.796123067931213   0.3671037164049977 1.0000   
         C         C         1.0       0.5285114276455557  0.7789524181653568  0.35366336296115736          1.0000   
         C         C         1.0       0.5015432222306093  0.7911284508359826  0.3498452330347635 1.0000   
         C         C         1.0       0.005893088857725548          0.8451079484711498 0.3254610805917585 1.0000   
         C         C         1.0       0.019818069024946317          0.8641884916220371 0.31422335879783636          1.0000   
         C         C         1.0       0.040748813339724244          0.8853530720560266 0.3283626827855177 1.0000   
         C         C         1.0       0.04546909713138625           0.8880131128360897 0.3534116444882782 1.0000   
         C         C         1.0       0.028962591629888568          0.8718460969809826 0.36439605383066825          1.0000   
         C         C         1.0       0.008355942901457913          0.8507984383318976 0.3500660015455535 1.0000   
         H         H         1.0       0.882187451291127   0.9118454101061104  0.4366585874695316 1.0000   
         H         H         1.0       0.9006810787298339  0.8498693214422526  0.3803235382594847 1.0000   
         H         H         1.0       0.8561610298472645  0.8239349704573915  0.37300127599632155          1.0000   
         H         H         1.0       0.8369194324169584  0.8805928977673175  0.42905759322717674          1.0000   
         H         H         1.0       0.9254662418724309  0.8691526227196369  0.4566271410922031 1.0000   
         H         H         1.0       0.9574427624027539  0.8719845428014729  0.5017477393305046 1.0000   
         H         H         1.0       0.9609823632917898  0.9053095190919553  0.012525803553013219         1.0000   
         H         H         1.0       0.9706012996641207  0.9443582444554891  0.43913345775685636          1.0000   
         H         H         1.0       0.9539184119969507  0.925441724481305   0.3877706297090758 1.0000   
         H         H         1.0       0.9763348302462072  0.8962135597947898  0.36209307586967565          1.0000   
         H         H         1.0       0.9774368276183868  0.8116550593946168  0.4085839725646798 1.0000   
         H         H         1.0       0.9482093594316864  0.8412601967032145  0.42650070498860254          1.0000   
         H         H         1.0       0.9036394836411995  0.8283522049098778  0.2996360340115731 1.0000   
         H         H         1.0       0.9467253904786115  0.8514664755275221  0.3206917797807828 1.0000   
         H         H         1.0       0.969426947085023   0.7696482525597909  0.36840599212270353          1.0000   
         H         H         1.0       0.9247140810151391  0.7460909825737243  0.345607542275224  1.0000   
         H         H         1.0       0.519412851323111   0.8663361834291631  0.3730536537218557 1.0000   
         H         H         1.0       0.5658635037489296  0.8433807879197882  0.3856866470566949 1.0000   
         H         H         1.0       0.5285564221057858  0.7541728436423691  0.3467247134801582 1.0000   
         H         H         1.0       0.007346808549749895          0.774264920800486  0.34397083776036314          1.0000   
         H         H         1.0       0.9911999636630027  0.8255612007581906  0.3142705431932121 1.0000   
         H         H         1.0       0.016903175304664897          0.8571963704699811 0.29495297468205667          1.0000   
         H         H         1.0       0.06395475689180818           0.8992880971965221 0.36718635555010554          1.0000   
         H         H         1.0       0.033418391945271964          0.8746606667773209 0.38396792802451946          1.0000   
         C         C         1.0       0.616074819382161   0.004077689947111995         0.158464335828787  1.0000   
         C         C         1.0       0.589434106450093   0.9927828889887499  0.1460122527330222 1.0000   
         C         C         1.0       0.5848316819818834  0.9611899518077436  0.13520585070156343          1.0000   
         C         C         1.0       0.6072491074506554  0.9405315013545115  0.13983397535643008          1.0000   
         C         C         1.0       0.6337243534657309  0.9512981575863835  0.1544225405456597 1.0000   
         C         C         1.0       0.6384307756580218  0.983625602694813   0.16231515802147495          1.0000   
         H         H         1.0       0.5712716167192107  0.008924366675063355         0.14205847172131722          1.0000   
         H         H         1.0       0.5647981006000193  0.9571189709247907  0.12272085520968579          1.0000   
         H         H         1.0       0.6505012713988807  0.9341514663583982  0.1589226221661931 1.0000   
         H         H         1.0       0.6591099538697175  0.9901764372392827  0.17189171422765603          1.0000   
         C         C         1.0       0.6537199484136589  0.8948955000956996  0.12536660959358084          1.0000   
         C         C         1.0       0.6276725999000989  0.8830322938756645  0.12623440997826824          1.0000   
         C         C         1.0       0.624274826149941   0.8495216363097936  0.1267649307738854 1.0000   
         C         C         1.0       0.6478461611856129  0.8296081719934805  0.1320403847359894 1.0000   
         C         C         1.0       0.6733150255920752  0.8406462430706626  0.131962077106749  1.0000   
         C         C         1.0       0.6749186864295491  0.8733452195572747  0.12822235179084956          1.0000   
         C         C         1.0       0.6008077853897104  0.9051062998956956  0.12661815692585587          1.0000   
         C         C         1.0       0.5842209951730772  0.9062774533716244  0.09778505861151615          1.0000   
         C         C         1.0       0.5669227500926678  0.8801899885558722  0.08438204687921395          1.0000   
         C         C         1.0       0.5522371722077529  0.8819303289066135  0.05967542831763746          1.0000   
         C         C         1.0       0.552343559634766   0.9100287955559586  0.0473657792329071 1.0000   
         C         C         1.0       0.5702132673199317  0.9353064096799193  0.059716976074772075         1.0000   
         C         C         1.0       0.5856202401770713  0.9341322415628934  0.08378673408483732          1.0000   
         C         C         1.0       0.6032740880617965  0.8834785562238548  0.16827468880045268          1.0000   
         C         C         1.0       0.5935359499048941  0.8692870525779585  0.1854271209866114 1.0000   
         C         C         1.0       0.5667832794312267  0.8547958717470711  0.17844419474428588          1.0000   
         C         C         1.0       0.549253000822806   0.861101783260406   0.15438967003799015          1.0000   
         C         C         1.0       0.5582276552493483  0.8791093444835801  0.1385922441656529 1.0000   
         C         C         1.0       0.585736706734457   0.8887320662665953  0.14455980040590985          1.0000   
         C         C         1.0       0.5591885588776022  0.8314980421149021  0.19722431784246647          1.0000   
         C         C         1.0       0.6322826139567274  0.7683794828900659  0.20562482637148638          1.0000   
         C         C         1.0       0.6279444053930662  0.7788507368327415  0.22715579271386346          1.0000   
         C         C         1.0       0.6044135653740671  0.7984774477877654  0.2251879852485381 1.0000   
         C         C         1.0       0.5848185031759255  0.8064992736879365  0.2021616532064379 1.0000   
         C         C         1.0       0.5889152781366402  0.7912204493909777  0.18047794891579078          1.0000   
         C         C         1.0       0.6131218209137318  0.7747147987227158  0.18258162995691302          1.0000   
         C         C         1.0       0.5295040794170056  0.8111101954356021  0.187552451922493  1.0000   
         C         C         1.0       0.5053612125229213  0.8287103824052012  0.1824912458560864 1.0000   
         C         C         1.0       0.9823814893088152  0.8170049974271345  0.19402145777428043          1.0000   
         C         C         1.0       0.9761100739911538  0.7852901279095258  0.19212783069965392          1.0000   
         C         C         1.0       0.996852724126855   0.7629074147452732  0.19874784901145723          1.0000   
         C         C         1.0       0.5273191552156367  0.7772657878859908  0.18701825595070662          1.0000   
         C         C         1.0       0.5543229109831506  0.8336656530090223  0.24074850976391962          1.0000   
         C         C         1.0       0.5470226779168723  0.8492498436447099  0.25949760836611363          1.0000   
         C         C         1.0       0.5425860296933319  0.8827554385581781  0.2576194169276018 1.0000   
         C         C         1.0       0.5445816534109598  0.9005066836394123  0.23831672740493973          1.0000   
         C         C         1.0       0.5535033617406556  0.8848341503384999  0.2205744764215527 1.0000   
         C         C         1.0       0.557005918698384   0.8513780807995016  0.22099340535736958          1.0000   
         H         H         1.0       0.6551794692965538  0.9198313300776264  0.12101688186380369          1.0000   
         H         H         1.0       0.604385095148121   0.8387561013836793  0.1241402829523696 1.0000   
         H         H         1.0       0.6431600829079074  0.8045754615632257  0.13534643399490345          1.0000   
         H         H         1.0       0.6957237589452314  0.8817204644426511  0.13058734012326806          1.0000   
         H         H         1.0       0.5698291196636862  0.8566742792365513  0.09268187515103482          1.0000   
         H         H         1.0       0.5400733566931342  0.8625867447101855  0.04823541971615003          1.0000   
         H         H         1.0       0.5721140255306789  0.9574780817016352  0.04962752333395891          1.0000   
         H         H         1.0       0.5999953663365822  0.9544351465824354  0.08987652470940537          1.0000   
         H         H         1.0       0.6255310372517887  0.8917815011912119  0.17619176341566742          1.0000   
         H         H         1.0       0.6062616344945906  0.8687623160262795  0.20533046665799817          1.0000   
         H         H         1.0       0.5272552639703987  0.8537392075897163  0.14876138436314473          1.0000   
         H         H         1.0       0.5443517894207712  0.8844390770993501  0.12074954831235722          1.0000   
         H         H         1.0       0.6417004771653414  0.7709880324969978  0.2455755872300982 1.0000   
         H         H         1.0       0.6038189840402326  0.8062698796468066  0.24337868588586634          1.0000   
         H         H         1.0       0.5741396907342333  0.7926434358165031  0.16222779204211615          1.0000   
         H         H         1.0       0.6184650563140972  0.7644794406458532  0.1671822336187476 1.0000   
         H         H         1.0       0.5049351922562988  0.856286154375725   0.18069132947500785          1.0000   
         H         H         1.0       0.9661831557545585  0.833472385069577   0.19095176092073698          1.0000   
         H         H         1.0       0.990766603755943   0.7383838043372185  0.19996968334137308          1.0000   
         H         H         1.0       0.546922084262101   0.7627267627504429  0.19150575106918857          1.0000   
         H         H         1.0       0.5562948940172631  0.8085112104253463  0.24180844336821472          1.0000   
         H         H         1.0       0.5438786358314408  0.8372030374198405  0.27497860305115673          1.0000   
         H         H         1.0       0.539172913557797   0.9260355241897864  0.2375833962405053 1.0000   
         H         H         1.0       0.5520588702439636  0.8967275556700849  0.20427527274262816          1.0000   
         C         C         1.0       0.6787170968414726  0.50321528607729    0.423847816512295  1.0000   
         C         C         1.0       0.7021681178215067  0.49052058435581025           0.41978834347201194          1.0000   
         C         C         1.0       0.7052189045879097  0.4579333247545026  0.41751874597444644          1.0000   
         C         C         1.0       0.6853070999896554  0.4362062306035819  0.4198873606808332 1.0000   
         C         C         1.0       0.6635699374952533  0.4488158870210411  0.426368254634908  1.0000   
         C         C         1.0       0.6591740104788518  0.48129133633223276           0.4261128478884433 1.0000   
         H         H         1.0       0.7158974453562144  0.5087339574203404  0.41601623740664667          1.0000   
         H         H         1.0       0.721520424261018   0.4479274817834376  0.41162782370235945          1.0000   
         H         H         1.0       0.6476817961227636  0.4331735727158679  0.4275430975433977 1.0000   
         H         H         1.0       0.6381497214980768  0.4862970422417601  0.42476077156435205          1.0000   
         C         C         1.0       0.6575697725820483  0.3469432321884536  0.41608464022832625          1.0000   
         C         C         1.0       0.6603627137877484  0.3780446310596732  0.4081032567668065 1.0000   
         C         C         1.0       0.6356491781894562  0.38970410752329165           0.3903684483177552 1.0000   
         C         C         1.0       0.6117211460725022  0.3702181149808346  0.38032870328258983          1.0000   
         C         C         1.0       0.6099118568402799  0.33995263980443874           0.38804910939297155          1.0000   
         C         C         1.0       0.6344643083923023  0.3281715452171125  0.4061280177992415 1.0000   
         C         C         1.0       0.6892845690333057  0.3990481043263022  0.4185887767341254 1.0000   
         C         C         1.0       0.7084485091154424  0.39240007960731516           0.44628495376355715          1.0000   
         C         C         1.0       0.7384139420962225  0.3945529271504744  0.4525868136627754 1.0000   
         C         C         1.0       0.7538953024781841  0.3861639726528347  0.4769876906544218 1.0000   
         C         C         1.0       0.7429680160990574  0.38201899160120306           0.4953984107248716 1.0000   
         C         C         1.0       0.7148436890350237  0.3823701160567817  0.4883406670706291 1.0000   
         C         C         1.0       0.6971928256688196  0.38812800078214027           0.4647233358161478 1.0000   
         C         C         1.0       0.6935510316894508  0.4001282260184484  0.37483879302680706          1.0000   
         C         C         1.0       0.7023613586148711  0.3876366468464395  0.3559479049416029 1.0000   
         C         C         1.0       0.7207801788456959  0.36144314831306273           0.36004834904866284          1.0000   
         C         C         1.0       0.7255781419675273  0.3439026565250107  0.38184659121481285          1.0000   
         C         C         1.0       0.7166423371155586  0.3566489210892124  0.40074973830714244          1.0000   
         C         C         1.0       0.7014298333445114  0.385643005008142   0.397848041685505  1.0000   
         C         C         1.0       0.7317749961656896  0.3486965814955339  0.3388977895223536 1.0000   
         C         C         1.0       0.659590535406128   0.2921409620777075  0.2903194391721218 1.0000   
         C         C         1.0       0.6608845465306636  0.32510129770795065           0.2863267732501568 1.0000   
         C         C         1.0       0.6825052466446045  0.34322113607421467           0.30211855707680196          1.0000   
         C         C         1.0       0.7040188770236301  0.32981641165386544           0.3217400772856553 1.0000   
         C         C         1.0       0.6994952302189805  0.29808778579106543           0.32594593962374974          1.0000   
         C         C         1.0       0.6782457270257777  0.2799800685574061  0.31032818156305886          1.0000   
         C         C         1.0       0.7590878190800024  0.3285794057184071  0.3480301265300236 1.0000   
         C         C         1.0       0.7814551005310528  0.33547917584682296           0.369671652073058  1.0000   
         C         C         1.0       0.8061877126741525  0.31922499429158663           0.3752107165088804 1.0000   
         C         C         1.0       0.8098670690048252  0.29310119180295474           0.36137426984995   1.0000   
         C         C         1.0       0.7888725912840512  0.28558304219485764           0.3390729881909206 1.0000   
         C         C         1.0       0.7642123622760797  0.30347367273197445           0.33271824849330356          1.0000   
         C         C         1.0       0.74194578583546    0.37120955630066127           0.3009652708791074 1.0000   
         C         C         1.0       0.7533515366731999  0.39280133845706794           0.2894327095162549 1.0000   
         C         C         1.0       0.7674358581332127  0.4196030563625574  0.3027174962380366 1.0000   
         C         C         1.0       0.7674950404030983  0.42774794475619055           0.3263578717951489 1.0000   
         C         C         1.0       0.7563472742747076  0.40488959771749766           0.337857977867569  1.0000   
         C         C         1.0       0.7431345787565058  0.3757340643599222  0.32566987435240696          1.0000   
         H         H         1.0       0.6761823176807162  0.3380074430022015  0.42975524369949325          1.0000   
         H         H         1.0       0.6353040606461243  0.4155668905476996  0.38414828785967453          1.0000   
         H         H         1.0       0.5947142747024748  0.3780792406384423  0.36341928562784187          1.0000   
         H         H         1.0       0.6337831910095604  0.3034678056627309  0.4125041527110903 1.0000   
         H         H         1.0       0.7511614537557633  0.40165706048246064           0.4413057032444315 1.0000   
         H         H         1.0       0.7765524067698295  0.3870994610290396  0.4820844463746438 1.0000   
         H         H         1.0       0.7072527980845252  0.37755560590129594           0.5037810157882716 1.0000   
         H         H         1.0       0.673955952560607   0.3890334072170283  0.4592608545339417 1.0000   
         H         H         1.0       0.680193517699747   0.42111796491363374           0.372036323337842  1.0000   
         H         H         1.0       0.698795207563265   0.3985761881589881  0.33898434894762197          1.0000   
         H         H         1.0       0.733541951659954   0.319643500695294   0.38368962290897335          1.0000   
         H         H         1.0       0.7198576941253937  0.3388932561606411  0.4156104617436488 1.0000   
         H         H         1.0       0.6454484813547908  0.33363645006510834           0.2706280187659183 1.0000   
         H         H         1.0       0.6839088209840043  0.36968686631432657           0.299444413982406  1.0000   
         H         H         1.0       0.7141014056524713  0.2861464372701451  0.34112314778324243          1.0000   
         H         H         1.0       0.6785290883114607  0.25336244287943277           0.3111987309890904 1.0000   
         H         H         1.0       0.7815247804610814  0.35851585631167987           0.37942547180523284          1.0000   
         H         H         1.0       0.8232104968759196  0.32655643774120985           0.39198188970058384          1.0000   
         H         H         1.0       0.7900592354901174  0.26905078491551426           0.3258182431481021 1.0000   
         H         H         1.0       0.7491494565406708  0.2948236087758125  0.3157526935639719 1.0000   
         H         H         1.0       0.7321339626149487  0.3517375915078113  0.29128029555480134          1.0000   
         H         H         1.0       0.753293400755068   0.3876409641716567  0.2710121517978559 1.0000   
         H         H         1.0       0.7813707094119253  0.44770738371436775           0.3363295034254566 1.0000   
         H         H         1.0       0.7545795375433066  0.4104340969149947  0.35553731413644907          1.0000   
         C         C         1.0       0.8634327214869109  0.49480492181382285           0.14160373556743716          1.0000   
         C         C         1.0       0.8366374840979685  0.48133537187615477           0.12957947964867314          1.0000   
         C         C         1.0       0.8349458953812916  0.4486797026207964  0.12702674669959632          1.0000   
         C         C         1.0       0.8588095153286895  0.4279968747695079  0.13510599758028433          1.0000   
         C         C         1.0       0.8834397266807787  0.44321164967230575           0.15038423321475347          1.0000   
         C         C         1.0       0.8853214603127465  0.4761554381703893  0.15377504927151167          1.0000   
         H         H         1.0       0.8183646115592216  0.4938796923080835  0.11800040787500199          1.0000   
         H         H         1.0       0.8150808132342868  0.43844134394164286           0.11593577615691782          1.0000   
         H         H         1.0       0.9028120017371339  0.4285464086973667  0.15843173052612253          1.0000   
         H         H         1.0       0.906323453098123   0.48633834704246526           0.16485074381292958          1.0000   
         C         C         1.0       0.9042608514463996  0.384178392130513   0.12410247105094228          1.0000   
         C         C         1.0       0.8819733776460729  0.37051120896478895           0.12980848082539162          1.0000   
         C         C         1.0       0.8834626998412993  0.3386230407696536  0.1370776796205927 1.0000   
         C         C         1.0       0.9071460114252756  0.3210923085878825  0.14109430103308435          1.0000   
         C         C         1.0       0.9312265972379851  0.33689951189360895           0.1392560300929147 1.0000   
         C         C         1.0       0.9293375149926466  0.36819427984938785           0.13105634839707395          1.0000   
         C         C         1.0       0.8542529175580014  0.38920869131589364           0.12720778108916178          1.0000   
         C         C         1.0       0.834880786169258   0.3828015475773004  0.09871011121240143          1.0000   
         C         C         1.0       0.8240872214662669  0.35221688375060467           0.0907153780896198 1.0000   
         C         C         1.0       0.8089689797189119  0.3446473464000771  0.06620092793037932          1.0000   
         C         C         1.0       0.8029041950031782  0.3694042778903802  0.04916660250957496          1.0000   
         C         C         1.0       0.812752714800456   0.39920189006291035           0.05628397130025323          1.0000   
         C         C         1.0       0.8295867201796885  0.4056949593264511  0.08068823121906919          1.0000   
         C         C         1.0       0.8596940827032854  0.3811703650737354  0.17457539747289633          1.0000   
         C         C         1.0       0.8490603527501428  0.3752326437412925  0.1929121645441974 1.0000   
         C         C         1.0       0.8225808029231975  0.3584622851524333  0.187241872723944  1.0000   
         C         C         1.0       0.8075886780996119  0.35286070409730136           0.1618195384530339 1.0000   
         C         C         1.0       0.8177412913535202  0.36389906228305147           0.14406913586777725          1.0000   
         C         C         1.0       0.8439486584780953  0.37891919439583666           0.14989456704530754          1.0000   
         C         C         1.0       0.8155840722431633  0.3400973942076206  0.20946591180518792          1.0000   
         C         C         1.0       0.8866022261843353  0.2744879970766389  0.21912117008884005          1.0000   
         C         C         1.0       0.8886347670196295  0.2988471736466324  0.2365151388714506 1.0000   
         C         C         1.0       0.8661771138081089  0.3194172675385513  0.23506783837298884          1.0000   
         C         C         1.0       0.8402193844483906  0.3141911552723551  0.2154654394042703 1.0000   
         C         C         1.0       0.8380241277440771  0.28872342325777495           0.199110412584161  1.0000   
         C         C         1.0       0.8614495130496433  0.2695415754496679  0.20116866971749328          1.0000   
         C         C         1.0       0.7844258662071444  0.3261070366651992  0.20150078156088277          1.0000   
         C         C         1.0       0.7618400745437817  0.3445771649559577  0.18701688702302427          1.0000   
         C         C         1.0       0.7349816610860037  0.3320469361482768  0.17750591781986966          1.0000   
         C         C         1.0       0.7302890402770812  0.30064290576535896           0.18242552414348295          1.0000   
         C         C         1.0       0.7515189996843129  0.2819939485520277  0.19808423197315367          1.0000   
         C         C         1.0       0.7781971856366336  0.2946473847945802  0.2057483285426593 1.0000   
         C         C         1.0       0.8172178015860456  0.35191111573691536           0.2552212205213311 1.0000   
         C         C         1.0       0.8158289330037914  0.37072630074081714           0.27471139472760275          1.0000   
         C         C         1.0       0.814944816506239   0.40415181739542755           0.2728532359109159 1.0000   
         C         C         1.0       0.8129578552340827  0.41844893271445055           0.25006910090821866          1.0000   
         C         C         1.0       0.812450609908447   0.397840305220702   0.23031136738622   1.0000   
         C         C         1.0       0.8161471762504489  0.36448288381109556           0.2325165000571021 1.0000   
         H         H         1.0       0.903066541687277   0.4049394593042523  0.11383491433588634          1.0000   
         H         H         1.0       0.8680858680094274  0.32762898104809024           0.14372313509115922          1.0000   
         H         H         1.0       0.9089727937554637  0.2949953616069771  0.1464142409437978 1.0000   
         H         H         1.0       0.9476083729036986  0.3796261954955542  0.12981919850746074          1.0000   
         H         H         1.0       0.830189449123341   0.3338953983386059  0.10289143776721095          1.0000   
         H         H         1.0       0.8022054100110022  0.3211433541192546  0.06241279817646673          1.0000   
         H         H         1.0       0.8113437241714612  0.41789841768513203           0.04291649353999288          1.0000   
         H         H         1.0       0.8394258072825033  0.42878496233126573           0.08492370014619138          1.0000   
         H         H         1.0       0.8813894038475303  0.38662853417055015           0.17950335784201596          1.0000   
         H         H         1.0       0.8647704420798509  0.3748282691328712  0.21149899777442052          1.0000   
         H         H         1.0       0.7869935405274416  0.3415594216005375  0.15298077363558416          1.0000   
         H         H         1.0       0.8041768602894542  0.3560745210688208  0.12478440586357624          1.0000   
         H         H         1.0       0.9094487982487196  0.3004094594117888  0.24972415928441152          1.0000   
         H         H         1.0       0.8714610041057606  0.34067305422982186           0.2475576359153991 1.0000   
         H         H         1.0       0.819192068794813   0.2849445015424866  0.18283956349869293          1.0000   
         H         H         1.0       0.8564156412352     0.24957713421461086           0.18700733399276176          1.0000   
         H         H         1.0       0.7667161030788998  0.3690001562619233  0.18197790630680907          1.0000   
         H         H         1.0       0.7178879383017034  0.34583116138654246           0.16559518671990617          1.0000   
         H         H         1.0       0.7457109943967992  0.257395184005177   0.19992253863266835          1.0000   
         H         H         1.0       0.7955026170122425  0.27905403888245517           0.21520018344296737          1.0000   
         H         H         1.0       0.8142204015928355  0.3257898321383484  0.257758390765083  1.0000   
         H         H         1.0       0.8184650535723494  0.35695569826482837           0.292072028935341  1.0000   
         H         H         1.0       0.8139425772684963  0.4440486049662936  0.2483882041951678 1.0000   
         H         H         1.0       0.8095344793711938  0.40962549263756864           0.21310285116602104          1.0000   
         C         C         1.0       0.5617293211468679  0.28150722102207715           0.33487313213455105          1.0000   
         C         C         1.0       0.5338342987875891  0.288358895158297   0.3265546465947114 1.0000   
         C         C         1.0       0.5150804575570059  0.2642186538237109  0.3160720936107514 1.0000   
         C         C         1.0       0.5238546235565004  0.2323705937437184  0.3156705731272707 1.0000   
         C         C         1.0       0.5519731296628138  0.2259443577697032  0.3276246105565677 1.0000   
         C         C         1.0       0.5711188330008593  0.250438578596574   0.3353959785654126 1.0000   
         H         H         1.0       0.5261938420467566  0.3124296706356642  0.32788391731205185          1.0000   
         H         H         1.0       0.9829375737323006  0.24619618103213384           0.3357735806938624 1.0000   
         H         H         1.0       0.5600722361565299  0.20106424921300198           0.3305831615327272 1.0000   
         H         H         1.0       0.5935183520471781  0.24681172496286136           0.3463198859046923 1.0000   
         C         C         1.0       0.5354522729457021  0.16964715078859505           0.2857865573777057 1.0000   
         C         C         1.0       0.996547676969969   0.15089445437238963           0.31392951079945886          1.0000   
         C         C         1.0       0.9792011709815356  0.12324741868706383           0.31036303597528164          1.0000   
         C         C         1.0       0.981305367369874   0.09977227970104129           0.29471051501176687          1.0000   
         C         C         1.0       0.5205820295767969  0.11674292166754414           0.26854379659767363          1.0000   
         C         C         1.0       0.5387439230497214  0.14274163169740225           0.27235606649772237          1.0000   
         C         C         1.0       0.9875455597905493  0.18459728269530695           0.3241522467471782 1.0000   
         C         C         1.0       0.967394024317133   0.19769369206467943           0.2985693086754977 1.0000   
         C         C         1.0       0.9410238205396336  0.1836825708663652  0.28724453087365404          1.0000   
         C         C         1.0       0.9238936930799863  0.19229946774107903           0.26342318035791273          1.0000   
         C         C         1.0       0.9345377016687804  0.21386531138022843           0.2500641397906993 1.0000   
         C         C         1.0       0.9610853853001321  0.22778939829858727           0.26154112823752773          1.0000   
         C         C         1.0       0.977126560179573   0.2194805644930045  0.28509793252882304          1.0000   
         C         C         1.0       0.9863302645102002  0.160678455293562   0.3639209160723251 1.0000   
         C         C         1.0       0.9765632795950137  0.15934067293479537           0.38481543303258536          1.0000   
         C         C         1.0       0.9504369785382577  0.17305052180558927           0.3832149068310647 1.0000   
         C         C         1.0       0.9362919685657665  0.189284472057251   0.3614946297198697 1.0000   
         C         C         1.0       0.948094368411603   0.19378580576828572           0.34334546713666475          1.0000   
         C         C         1.0       0.9727902789001968  0.17834959246011264           0.3437877623605236 1.0000   
         C         C         1.0       0.9341310051482612  0.16566594995566697           0.4031772765878241 1.0000   
         C         C         1.0       0.9004452495594751  0.07267805381854035           0.3703841055677724 1.0000   
         C         C         1.0       0.9250853171987314  0.07322032710766828           0.3903061928289219 1.0000   
         C         C         1.0       0.935638264857914   0.10255863266479383           0.3999805963872182 1.0000   
         C         C         1.0       0.9214437884632095  0.13098520629018412           0.39388423166483677          1.0000   
         C         C         1.0       0.8967457886253319  0.1298438097710475  0.373397142373052  1.0000   
         C         C         1.0       0.8855594538621596  0.10148156101210178           0.3625310122119929 1.0000   
         C         C         1.0       0.9117749066415105  0.1930069499718558  0.40483711715721743          1.0000   
         C         C         1.0       0.918176244008392   0.22549076301536922           0.4031859976311042 1.0000   
         C         C         1.0       0.8977263506111919  0.24944221177536505           0.3996250499969777 1.0000   
         C         C         1.0       0.8719746779079971  0.24043068984441213           0.4002330417021579 1.0000   
         C         C         1.0       0.8650655957608937  0.20926970008012463           0.40403162025969225          1.0000   
         C         C         1.0       0.8857496605119911  0.18615613688762161           0.40698756912367406          1.0000   
         C         C         1.0       0.9490531991117089  0.14855644969539836           0.44836274965332445          1.0000   
         C         C         1.0       0.9687342371230531  0.14598583381776448           0.4720447528297073 1.0000   
         C         C         1.0       0.9910738448588855  0.16768235366967962           0.4808041632340108 1.0000   
         C         C         1.0       0.5125261735179816  0.22742911080485687           0.4493210543582155 1.0000   
         C         C         1.0       0.9785565784756872  0.18907796266172844           0.4400234615658392 1.0000   
         C         C         1.0       0.9545507124146255  0.16710593417859074           0.4307067889265735 1.0000   
         H         H         1.0       0.5479881081438907  0.1900581181090232  0.2855213313597847 1.0000   
         H         H         1.0       0.964073144660431   0.1237100897126702  0.31947775562260333          1.0000   
         H         H         1.0       0.9702718442943099  0.07656065945505774           0.2943202807691106 1.0000   
         H         H         1.0       0.5538927259997996  0.14290150564005494           0.2627558300950245 1.0000   
         H         H         1.0       0.9329772387894851  0.16569395774717083           0.29688003333101576          1.0000   
         H         H         1.0       0.9025070832517714  0.18240153891304167           0.25658184872416606          1.0000   
         H         H         1.0       0.9708466897198622  0.24055537064719118           0.2499753081713657 1.0000   
         H         H         1.0       0.5048585487281363  0.24954280842723497           0.2650374033474595 1.0000   
         H         H         1.0       0.5268694087148158  0.17467911910816022           0.35123529287481847          1.0000   
         H         H         1.0       0.9874612730298561  0.14581513889458672           0.4009702342395274 1.0000   
         H         H         1.0       0.9165890878453702  0.20310237435930353           0.35975982186258154          1.0000   
         H         H         1.0       0.9403475682887903  0.21015267996276576           0.33007648543994417          1.0000   
         H         H         1.0       0.9388015577251072  0.052634925070788055         0.39615356430380533          1.0000   
         H         H         1.0       0.9552611109446351  0.10124250241522018           0.41312483657229854          1.0000   
         H         H         1.0       0.8871681988935322  0.15137323611829853           0.36439390678226036          1.0000   
         H         H         1.0       0.8671400729083188  0.1004959835114633  0.3469110882510555 1.0000   
         H         H         1.0       0.9392937896489434  0.23395186446572092           0.40349297704884907          1.0000   
         H         H         1.0       0.9035315507005435  0.27369498217248667           0.39614082450077703          1.0000   
         H         H         1.0       0.8435235312258713  0.20355787000472605           0.4024140388799818 1.0000   
         H         H         1.0       0.8782144569768071  0.16025808220654025           0.4067524522801328 1.0000   
         H         H         1.0       0.9303358535832671  0.13457550742328236           0.4437259572872318 1.0000   
         H         H         1.0       0.9935271623362706  0.1846715136717013  0.9961207559060034 1.0000   
         H         H         1.0       0.5281432712752527  0.2462563597489195  0.4561054680977938 1.0000   
         H         H         1.0       0.5032414896268992  0.2330901915979316  0.4101286769018417 1.0000   
         C         C         1.0       0.9890282541118984  0.28551414320238616           0.18243314196127888          1.0000   
         C         C         1.0       0.5056372876533252  0.2914226002957417  0.15393987578093657          1.0000   
         C         C         1.0       0.5215951598703035  0.2686110409579841  0.16876900944278111          1.0000   
         C         C         1.0       0.5111237200760298  0.23743952401482213           0.1705546182773479 1.0000   
         C         C         1.0       0.4837259163555664  0.23110643871180908           0.1556041617960775 1.0000   
         C         C         1.0       0.9757178461024114  0.2566739350408904  0.1764387013706712 1.0000   
         H         H         1.0       0.5164327565747757  0.31443766036022847           0.15536196317710588          1.0000   
         H         H         1.0       0.5441771824782433  0.27319154344505037           0.1776656619216397 1.0000   
         H         H         1.0       0.9750872691203452  0.20641765663593487           0.1800040294343959 1.0000   
         H         H         1.0       0.9539345368288733  0.25344078892712607           0.1676974335164485 1.0000   
         C         C         1.0       0.4982320046223497  0.17924459988169633           0.2009736664067818 1.0000   
         C         C         1.0       0.519286912532113   0.1783791741466371  0.19015806050629297          1.0000   
         C         C         1.0       0.5323203298292253  0.14858773219013874           0.18912971770522274          1.0000   
         C         C         1.0       0.5223589889212547  0.12237013522207445           0.19786179953280295          1.0000   
         C         C         1.0       0.501881053696771   0.12325248506362207           0.20911056826144778          1.0000   
         C         C         1.0       0.48996763184072956           0.15297114855413319          0.2117024323898984 1.0000   
         C         C         1.0       0.5322608125469313  0.21049569556691825           0.1839681794928617 1.0000   
         C         C         1.0       0.5514955339722315  0.22030695713078272           0.2119748864194732 1.0000   
         C         C         1.0       0.5737872589614743  0.2014420929682075  0.22521461890313763          1.0000   
         C         C         1.0       0.5924115150676     0.20987853523991934           0.24830500107768094          1.0000   
         C         C         1.0       0.5884179739637176  0.23876596465638233           0.2586765032843877 1.0000   
         C         C         1.0       0.5656867431261713  0.25907131462352545           0.2473334018661574 1.0000   
         C         C         1.0       0.5455948186306666  0.24768070106071474           0.22478770439638862          1.0000   
         C         C         1.0       0.5360984000640806  0.19190591759321232           0.14152906702318963          1.0000   
         C         C         1.0       0.5516351051111165  0.18671236890564682           0.12669303737998275          1.0000   
         C         C         1.0       0.5791322349016778  0.19768820781832622           0.1314137243066246 1.0000   
         C         C         1.0       0.5916197763738691  0.21203084491286614           0.15500314172505056          1.0000   
         C         C         1.0       0.5773606394437341  0.21667996580612198           0.17041574060620476          1.0000   
         C         C         1.0       0.5491268324835518  0.2041632014388257  0.16523361862607885          1.0000   
         C         C         1.0       0.5961616638830023  0.18990215727996052           0.11245798881280777          1.0000   
         C         C         1.0       0.6192370078334647  0.0928436199362965  0.14117281093853812          1.0000   
         C         C         1.0       0.5956345710552188  0.09657701293919407           0.12016494237404303          1.0000   
         C         C         1.0       0.5875348378546961  0.12769876784508932           0.11182783963467384          1.0000   
         C         C         1.0       0.6052609283126548  0.15494545789293335           0.1227235605341027 1.0000   
         C         C         1.0       0.6279450385527975  0.15007386181819796           0.14296756775366007          1.0000   
         C         C         1.0       0.6348586057553531  0.11956560208655907           0.15261860928518764          1.0000   
         C         C         1.0       0.6229784726688956  0.21576619811321    0.11574596767084888          1.0000   
         C         C         1.0       0.6197381790065546  0.24796644300365409           0.12145065907397862          1.0000   
         C         C         1.0       0.6416864659402953  0.2692249275580137  0.12906821046250608          1.0000   
         C         C         1.0       0.6679281592549643  0.2582854662665163  0.1304207868902101 1.0000   
         C         C         1.0       0.6708838957328377  0.2279435791579742  0.12084886933817568          1.0000   
         C         C         1.0       0.6481238880769004  0.2068664906038634  0.11313720199518329          1.0000   
         C         C         1.0       0.5863930912032115  0.17275467365291583           0.06755315051132284          1.0000   
         C         C         1.0       0.5738159583331448  0.17721484539256896           0.04224319086084969          1.0000   
         C         C         1.0       0.551034995276836   0.19736462849584913           0.033617543864552527         1.0000   
         C         C         1.0       0.5431843069901918  0.21452824411620888           0.0507570263555116 1.0000   
         C         C         1.0       0.5566489651531527  0.21075299592848037           0.07568210744932448          1.0000   
         C         C         1.0       0.5786608012109538  0.19027063972626107           0.08445774057297008          1.0000   
         H         H         1.0       0.48715952140858704           0.20290666993277612          0.20010083766443362          1.0000   
         H         H         1.0       0.5514206935562597  0.14553591597676926           0.1834175841023785 1.0000   
         H         H         1.0       0.5341223499772655  0.09994634223217215           0.20070286937204995          1.0000   
         H         H         1.0       0.9721537250605963  0.15048678674489296           0.24123410887754146          1.0000   
         H         H         1.0       0.5786346386398858  0.18093611566158627           0.2154067448394042 1.0000   
         H         H         1.0       0.6137102173147888  0.1976007941482318  0.25688588147666097          1.0000   
         H         H         1.0       0.5629347361760347  0.28032159334251    0.2578955467268041 1.0000   
         H         H         1.0       0.5259472599360213  0.26091980504750417           0.2157136472636685 1.0000   
         H         H         1.0       0.5147527539939712  0.18168869500154738           0.135495307832965  1.0000   
         H         H         1.0       0.5402544958563102  0.17214209293325242           0.11013404297328391          1.0000   
         H         H         1.0       0.6125080761988346  0.22150260950978415           0.16029442361166416          1.0000   
         H         H         1.0       0.588139229199763   0.22536133956437224           0.18800408819423622          1.0000   
         H         H         1.0       0.5821606492412038  0.07686371734084839           0.11054990100414626          1.0000   
         H         H         1.0       0.5677028733330778  0.13147619377217018           0.0978985472986639 1.0000   
         H         H         1.0       0.640978777215182   0.17072634754895813           0.15255388494361471          1.0000   
         H         H         1.0       0.6541040635444897  0.11541185786537227           0.1685855506612879 1.0000   
         H         H         1.0       0.597468611460802   0.2534386889919867  0.11912069812989481          1.0000   
         H         H         1.0       0.6379659524578294  0.29318183042240653           0.13350517699851183          1.0000   
         H         H         1.0       0.6912628096786031  0.22183717921005067           0.11973039800629535          1.0000   
         H         H         1.0       0.6484258331026088  0.18619063516095016           0.10143950508873015          1.0000   
         H         H         1.0       0.6068219810550531  0.15970827471922444           0.07451143580177394          1.0000   
         H         H         1.0       0.5828477121700191  0.16414666773076503           0.02997395404743005          1.0000   
         H         H         1.0       0.5298902817246927  0.23520394955403973           0.04710986493798191          1.0000   
         H         H         1.0       0.5508907204795576  0.22746319760039393           0.08780841036711981          1.0000   
         C         C         1.0       0.5332642070235485  0.17760257184290834           0.9864709634337286 1.0000   
         C         C         1.0       0.5344777563628013  0.20525179679555425           0.00553240962135737          1.0000   
         H         H         1.0       0.5278477398408012  0.15567900985890906           0.9959120279398613 1.0000   
         H         H         1.0       0.5545845541750346  0.17516458621017428           0.9871634767397257 1.0000   
         H         H         1.0       0.5455503764881949  0.22666045898728956           0.0008171180605192063        1.0000   
         H         H         1.0       0.5129600693344725  0.21402795308468    0.004733424732551006         1.0000   
         C         C         1.0       0.4964464172382491  0.09383487035493124           0.22371130333919007          1.0000   
         C         C         1.0       0.0014868226414666008         0.07352704275054547          0.26223628747566424          1.0000   
         H         H         1.0       0.47541704588158584           0.09625203028947683          0.22557874816581475          1.0000   
         H         H         1.0       0.49296483913325717           0.07022040285414953          0.21223600592726657          1.0000   
         H         H         1.0       0.9929038236637725  0.05029188501939314           0.2655815633576939 1.0000   
         H         H         1.0       0.5387397802723682  0.0818211444218943  0.24805611382204965          1.0000   
         C         C         1.0       0.700701756017267   0.28594652079919625           0.17101026902383407          1.0000   
         C         C         1.0       0.6956398226196456  0.27860482228513495           0.14362831158021785          1.0000   
         H         H         1.0       0.6979344721744278  0.264464201036155   0.18143621523092962          1.0000   
         H         H         1.0       0.6832537424821001  0.30129414862675874           0.17166838663145445          1.0000   
         H         H         1.0       0.6943868654141058  0.29925175840884194           0.13169683280046682          1.0000   
         H         H         1.0       0.7116726805681997  0.265514046238275   0.13784200889399098          1.0000   
         C         C         1.0       0.9741178315745013  0.3165578556063153  0.17600299760262392          1.0000   
         C         C         1.0       0.959008731399423   0.31865778574463316           0.1468585353311149 1.0000   
         H         H         1.0       0.986963007709519   0.33845949590722163           0.18173982468051247          1.0000   
         H         H         1.0       0.9567211445395704  0.3201672602182665  0.18480767989257316          1.0000   
         H         H         1.0       0.954829424974118   0.29332404469938034           0.13756740687519886          1.0000   
         H         H         1.0       0.9749117102551402  0.32937439186751066           0.14064277713935008          1.0000   
         C         C         1.0       0.9133792903097055  0.25810916280994795           0.21686448048480889          1.0000   
         C         C         1.0       0.9180161666438122  0.22191148431139213           0.22330175985637157          1.0000   
         H         H         1.0       0.9104674123433208  0.26084801350464903           0.1971128302474225 1.0000   
         H         H         1.0       0.9331327630597164  0.27474039991383464           0.22531749786613262          1.0000   
         H         H         1.0       0.9316521462894356  0.21207612630725575           0.21353253522064378          1.0000   
         H         H         1.0       0.8981034741549507  0.20721140724993492           0.21746061699489447          1.0000   
         C         C         1.0       0.5835875319364033  0.3194913415091372  0.3744508350167781 1.0000   
         C         C         1.0       0.5830106785243376  0.3085492892927002  0.3472898285122597 1.0000   
         H         H         1.0       0.5646992005135538  0.3323747123415335  0.37561608220721265          1.0000   
         H         H         1.0       0.5820401538530562  0.2972482966166672  0.3836348513568384 1.0000   
         H         H         1.0       0.6041497019868884  0.2984697062068203  0.35036062719851646          1.0000   
         H         H         1.0       0.5812285559212942  0.3303646826206585  0.33508928874878263          1.0000   
         C         C         1.0       0.8390751399492997  0.2787453497309587  0.369340322200712  1.0000   
         C         C         1.0       0.8480159472179973  0.2638268971957597  0.3953495718306114 1.0000   
         H         H         1.0       0.8433023534545193  0.26018981341143377           0.35663869963768613          1.0000   
         H         H         1.0       0.8556910447372815  0.29579768130070166           0.3699077561868101 1.0000   
         H         H         1.0       0.854345667044939   0.28181937024855186           0.41181961070343936          1.0000   
         H         H         1.0       0.8294712247774538  0.24963543260396642           0.39721680975731066          1.0000   
         C         C         1.0       0.6113223955748501  0.2538472439639429  0.28143132026153583          1.0000   
         C         C         1.0       0.6368558030201061  0.2672146583978095  0.27339703126565124          1.0000   
         H         H         1.0       0.6034426175044074  0.27543952914865727           0.2892583385274439 1.0000   
         H         H         1.0       0.6172096194484259  0.2339027996638622  0.29478834323285685          1.0000   
         H         H         1.0       0.6270182988975822  0.27621645677477163           0.2545347286867469 1.0000   
         H         H         1.0       0.647015844815988   0.24647714000579873           0.26778956490906713          1.0000   
         C         C         1.0       0.7522982755924216  0.37003198843228924           0.01950749741072106          1.0000   
         C         C         1.0       0.7836907790528788  0.3632390774387221  0.02206678186204156          1.0000   
         H         H         1.0       0.7453468449988561  0.35023656966880834           0.028785711163744187         1.0000   
         H         H         1.0       0.7527649617936475  0.39177187269003383           0.03199215977313836          1.0000   
         H         H         1.0       0.7918348153392933  0.34513273666272    0.5118063184517815 1.0000   
         H         H         1.0       0.7727190227087863  0.32940582165111565           0.5292742810106577 1.0000   
         C         C         1.0       0.7859869760804953  0.44211624018451    0.29222793896314403          1.0000   
         C         C         1.0       0.8141798699502484  0.4255596303610099  0.2939726078192983 1.0000   
         H         H         1.0       0.7753050781696871  0.4469158414728981  0.2721948187989354 1.0000   
         H         H         1.0       0.7896425752867682  0.46636893543105884           0.3016776448427409 1.0000   
         H         H         1.0       0.8189896890889052  0.41080000219534407           0.3113131240806991 1.0000   
         H         H         1.0       0.8304127110416581  0.44693901087435844           0.29758666633047787          1.0000   
         C         C         1.0       0.6216570462363185  0.04050586453840497           0.1652565105590636 1.0000   
         C         C         1.0       0.629114830043129   0.058417205700711905         0.14491816754655484          1.0000   
         H         H         1.0       0.6012105277428282  0.0508135612154811  0.16538288553908062          1.0000   
         H         H         1.0       0.636010429768194   0.04477723381056709           0.18467321740871065          1.0000   
         H         H         1.0       0.6185068772777345  0.043691989344272424         0.12680177365254078          1.0000   
         H         H         1.0       0.6516186604841951  0.057668804789023524         0.1476613349705529 1.0000   
         C         C         1.0       0.8709093954366417  0.02198561457441269           0.36765689558511716          1.0000   
         C         C         1.0       0.8912854704186857  0.04160694550390683           0.3571136694997529 1.0000   
         H         H         1.0       0.8519451982353933  0.015600428717340707         0.35212175296930603          1.0000   
         H         H         1.0       0.8641319810495964  0.03925851696069745           0.3802455488954396 1.0000   
         H         H         1.0       0.879853591777491   0.04714002756890395           0.3374547577842069 1.0000   
         H         H         1.0       0.9093206484174201  0.02704257117559447           0.35750594812805847          1.0000   
         C         C         1.0       0.9957417053924822  0.8480302565881407  0.0301407925451104 1.0000   
         C         C         1.0       0.5341688795405033  0.9126574497945978  0.020801073113114847         1.0000   
         H         H         1.0       0.9976793082100941  0.8692175856762206  0.04399670181031156          1.0000   
         H         H         1.0       0.9861502047445545  0.8276519346319858  0.03804006501484332          1.0000   
         H         H         1.0       0.5307681828132783  0.8886080533599776  0.01147790072043617          1.0000   
         H         H         1.0       0.5440343232927856  0.92993139249753    0.012988312468021136         1.0000   
         C         C         1.0       0.5313867731386147  0.900209028319476   0.274919108605639  1.0000   
         C         C         1.0       0.4992049425628242  0.900393506795475   0.2686393199446377 1.0000   
         H         H         1.0       0.5390251992689774  0.8848358529427273  0.2914130651253897 1.0000   
         H         H         1.0       0.5415244926850039  0.925435511545969   0.2797435900203297 1.0000   
         H         H         1.0       0.48935073992723443           0.8852572874398661 0.25105612969312086          1.0000   
         H         H         1.0       0.4897847566633837  0.9243295173241601  0.26429205975200554          1.0000   
         C         C         1.0       0.8603073965379159  0.5496406239829247  0.1598574427248118 1.0000   
         C         C         1.0       0.8686519597834488  0.5306881574155213  0.1399089574251036 1.0000   
         H         H         1.0       0.8763087184099729  0.5455871510408278  0.1780776491981586 1.0000   
         H         H         1.0       0.8410170648461575  0.5383573287193093  0.16069282216033054          1.0000   
         H         H         1.0       0.8910819474154908  0.5369745423839638  0.1413488983078612 1.0000   
         H         H         1.0       0.8558056126756817  0.5385232486589027  0.1213935803878968 1.0000   
         C         C         1.0       0.7089149100833212  0.8127883775589759  0.16764646676899025          1.0000   
         C         C         1.0       0.6978708506785555  0.8171988021168712  0.13960981360789046          1.0000   
         H         H         1.0       0.7205313236761649  0.834490188803378   0.1748872315678575 1.0000   
         H         H         1.0       0.6916188858014766  0.8152755389155225  0.17582068358177474          1.0000   
         H         H         1.0       0.6921702850494039  0.7925072936613561  0.12985840447693245          1.0000   
         H         H         1.0       0.7139317667533162  0.8261248708186458  0.13287735581721608          1.0000   
         C         C         1.0       0.9448290324919894  0.7772790317368887  0.18474002803149556          1.0000   
         C         C         1.0       0.931141296323435   0.775676716829362   0.1558295826583805 1.0000   
         H         H         1.0       0.9332187381209877  0.7938804021612057  0.19244109022000258          1.0000   
         H         H         1.0       0.9421868189780536  0.7524123781941937  0.19050857647473826          1.0000   
         H         H         1.0       0.9478724727336508  0.7654566183517838  0.14879276567103514          1.0000   
         H         H         1.0       0.9275814251672665  0.8001825798183461  0.14778537724071678          1.0000   
         C         C         1.0       0.8646549709256562  0.7472572406019046  0.31196800468085867          1.0000   
         C         C         1.0       0.8808738957086871  0.7726317859556324  0.3035227962546672 1.0000   
         H         H         1.0       0.8569779148133551  0.7582690637354612  0.3279912901347557 1.0000   
         H         H         1.0       0.8810341242092066  0.728910483704755   0.322312558242883  1.0000   
         H         H         1.0       0.8847566669733371  0.761655206309335   0.2870194292978826 1.0000   
         H         H         1.0       0.8673906842822033  0.7942216085342544  0.2990252303291908 1.0000   
         C         C         1.0       0.6702355937851019  0.5388562509597039  0.4207324792195233 1.0000   
         C         C         1.0       0.6669915890147549  0.5533260709187694  0.3951236197996256 1.0000   
         H         H         1.0       0.649647982339744   0.5410855837655112  0.4240153246897952 1.0000   
         H         H         1.0       0.6882002011125388  0.5526344950042671  0.43560887057379694          1.0000   
         H         H         1.0       0.6467289530110076  0.5477097463990713  0.38097110042510757          1.0000   
         H         H         1.0       0.6810670014542743  0.5395494111874801  0.3880712756007518 1.0000   
         C         C         1.0       0.5798609560612993  0.7791197699111264  0.37223061821011494          1.0000   
         C         C         1.0       0.5931017602249619  0.7761631906585146  0.3996034546486399 1.0000   
         H         H         1.0       0.5775355115696906  0.7561905010366955  0.3610605238138128 1.0000   
         H         H         1.0       0.5924535223199681  0.7958888064598275  0.3646377374432128 1.0000   
         H         H         1.0       0.5778491772857023  0.762889286372135   0.40547793541789373          1.0000   
         H         H         1.0       0.5953824913539052  0.7988117801775478  0.4102468929655977 1.0000   
         C         C         1.0       0.7991664017373913  0.8289600132326579  0.368019992581777  1.0000   
         C         C         1.0       0.8173194017841195  0.8294431095210716  0.3956026657662389 1.0000   
         H         H         1.0       0.8122006709343302  0.8372519959058481  0.3571453215105635 1.0000   
         H         H         1.0       0.7824446199358797  0.8475385093276826  0.36669634246867905          1.0000   
         H         H         1.0       0.8011638713954801  0.8369974939830036  0.40629421433728313          1.0000   
         H         H         1.0       0.8238648474632408  0.803254192402425   0.4022311802648051 1.0000   
         C         C         1.0       0.6660639589932774  0.7183781733556707  0.21896401948377467          1.0000   
         C         C         1.0       0.6601802893136964  0.7520796935119481  0.20754423668623975          1.0000   
         H         H         1.0       0.6461833646872593  0.7047757801993589  0.21818663272885527          1.0000   
         H         H         1.0       0.6762168218013039  0.7040695386638459  0.20803237109745726          1.0000   
         H         H         1.0       0.6633437612318357  0.7496286865585231  0.1891823957653295 1.0000   
         H         H         1.0       0.6773070957390201  0.7682825900277882  0.21934264246944626          1.0000   
         C         C         1.0       0.7656224261074555  0.7069161262779414  0.011015035538327346         1.0000   
         C         C         1.0       0.7675889024930366  0.6812851994335533  0.030390398916682774         1.0000   
         H         H         1.0       0.7559729873036296  0.7298904519786543  0.01587596485687163          1.0000   
         H         H         1.0       0.7874920980591315  0.7148209340658029  0.01306436852086562          1.0000   
         H         H         1.0       0.775484842892379   0.6596616921423456  0.023118455387023226         1.0000   
         H         H         1.0       0.7467607118806483  0.6745120940130179  0.030754959465198625         1.0000   
         C         C         1.0       0.7477961325632623  0.5897067638858083  0.2535142987191342 1.0000   
         C         C         1.0       0.7718659363005004  0.5925728787384766  0.280429266953846  1.0000   
         H         H         1.0       0.7261851052838348  0.5951291411437547  0.25608804376355737          1.0000   
         H         H         1.0       0.7473796092855493  0.5665513450016265  0.24397368898760247          1.0000   
         H         H         1.0       0.7930777149904091  0.5945611177152257  0.2797436472909844 1.0000   
         H         H         1.0       0.7763049118023344  0.5681202599122992  0.28988495262056124          1.0000   
         C         C         1.0       0.7968310891541024  0.7843104248610964  0.8640497709060939 1.0000   
         C         C         1.0       0.7695937948760001  0.7888159675026803  0.8472841138022049 1.0000   
         C         C         1.0       0.7545277580441169  0.7627357238394412  0.8337230212729924 1.0000   
         C         C         1.0       0.7672874274307402  0.7327865837354608  0.8348303664207107 1.0000   
         C         C         1.0       0.7946787412202376  0.7308903175407031  0.8473806398542346 1.0000   
         C         C         1.0       0.8093371578854507  0.7554056274615458  0.8630681069480007 1.0000   
         H         H         1.0       0.7580155554834335  0.8116592762122007  0.8469605316198013 1.0000   
         H         H         1.0       0.7314647668905357  0.7673284578573246  0.8217868731469183 1.0000   
         H         H         1.0       0.8046248475895814  0.7083257908484186  0.8480629239868698 1.0000   
         H         H         1.0       0.8310904139874304  0.7538563356813042  0.8745335559640468 1.0000   
         C         C         1.0       0.7863148706487244  0.6718783322702903  0.8084374879630507 1.0000   
         C         C         1.0       0.7643797188488943  0.6686104817866589  0.8188829738877019 1.0000   
         C         C         1.0       0.7533048166593654  0.6388860673415698  0.8189434333651171 1.0000   
         C         C         1.0       0.7623947543089076  0.6126805975573087  0.8077234306029523 1.0000   
         C         C         1.0       0.7835673870426415  0.6149009441105886  0.7983018713387369 1.0000   
         C         C         1.0       0.7952390999500506  0.6458496102388434  0.7974435107283823 1.0000   
         C         C         1.0       0.7487598424772605  0.700296986594019   0.8231345876937943 1.0000   
         C         C         1.0       0.7276788468935729  0.7077284313987634  0.795553085042151  1.0000   
         C         C         1.0       0.7019879701944785  0.6926564145118538  0.7864586926102672 1.0000   
         C         C         1.0       0.6835324550548325  0.6971739684054772  0.7626521544742649 1.0000   
         C         C         1.0       0.6906908728572982  0.716753191785685   0.7468632477894224 1.0000   
         C         C         1.0       0.7155539222899526  0.7350070222847643  0.7558539879555554 1.0000   
         C         C         1.0       0.7332767649971877  0.7295023387720203  0.7801674646817074 1.0000   
         C         C         1.0       0.7518645042967512  0.6803831259086922  0.8676188405479756 1.0000   
         C         C         1.0       0.7414118831232899  0.6747910267906112  0.886135398131817  1.0000   
         C         C         1.0       0.7137260399547631  0.6820053061229716  0.883318624442527  1.0000   
         C         C         1.0       0.6958684541405716  0.6937574555373094  0.8601589405082396 1.0000   
         C         C         1.0       0.7090813804874936  0.7033215410834537  0.8433308199471977 1.0000   
         C         C         1.0       0.7363469587874103  0.6950862778007284  0.846120373251126  1.0000   
         C         C         1.0       0.7006025000964502  0.6771573730176799  0.9042747600549247 1.0000   
         C         C         1.0       0.6740094257853294  0.5752626642534681  0.8951312277538019 1.0000   
         C         C         1.0       0.7029635661851552  0.5847819994531946  0.9061505075800134 1.0000   
         C         C         1.0       0.711527228328628   0.6162371861433326  0.9058011778973696 1.0000   
         C         C         1.0       0.6922037663150353  0.6390593366351166  0.8972512349551196 1.0000   
         C         C         1.0       0.6643201834630076  0.6291844700377278  0.8847317685977065 1.0000   
         C         C         1.0       0.6556630424493736  0.5984500682575149  0.8848473375861371 1.0000   
         C         C         1.0       0.6776674187806652  0.701926899697481   0.9064501344829249 1.0000   
         C         C         1.0       0.6807107375527279  0.7339422189250928  0.9009259644809567 1.0000   
         C         C         1.0       0.6599647438354522  0.7554441033802377  0.9011699539645588 1.0000   
         C         C         1.0       0.6382204952059591  0.7471805875901236  0.9086681724100136 1.0000   
         C         C         1.0       0.6368918467792855  0.7149015451020289  0.9160450996000516 1.0000   
         C         C         1.0       0.65607546246189    0.6927706476810018  0.9146861083793333 1.0000   
         C         C         1.0       0.7187312473484051  0.6649360936656059  0.9521966593483758 1.0000   
         C         C         1.0       0.7316750044494899  0.673090673091494   0.9767265118480692 1.0000   
         C         C         1.0       0.75189982187024    0.6975508128141955  0.9833167642304246 1.0000   
         C         C         1.0       0.757139564271187   0.7140034500301401  0.9641959320411368 1.0000   
         C         C         1.0       0.7412322600759139  0.708052593042115   0.9399655243866454 1.0000   
         C         C         1.0       0.7215008561100512  0.6831645522918096  0.9331606277070948 1.0000   
         H         H         1.0       0.7901993666178687  0.696120841872251   0.8015140372273275 1.0000   
         H         H         1.0       0.7353855750616699  0.6341033759531159  0.8237912603483984 1.0000   
         H         H         1.0       0.7496373036820041  0.5901033449571101  0.8049328073661689 1.0000   
         H         H         1.0       0.8083698826667982  0.65001474111112    0.785551974445739  1.0000   
         H         H         1.0       0.6956566539651976  0.676518307038285   0.7978161992320102 1.0000   
         H         H         1.0       0.6660965846298942  0.680819036662027   0.755313465216381  1.0000   
         H         H         1.0       0.7214922880779125  0.7525458365351376  0.7446779112444512 1.0000   
         H         H         1.0       0.7526698713385847  0.7454071177959322  0.7869718135164139 1.0000   
         H         H         1.0       0.7733073701886864  0.6713004966285531  0.8696077683701984 1.0000   
         H         H         1.0       0.7544206256051618  0.6638738054699567  0.9028595982938161 1.0000   
         H         H         1.0       0.6736748439563102  0.6993109824924751  0.8572958127715231 1.0000   
         H         H         1.0       0.697643548082481   0.7203740371253519  0.8300684077909348 1.0000   
         H         H         1.0       0.7178877194211397  0.5678180634172139  0.9170466980287062 1.0000   
         H         H         1.0       0.7334793215931963  0.6198234792167101  0.91510806669518   1.0000   
         H         H         1.0       0.648969918886116   0.648354644470969   0.8755305338621382 1.0000   
         H         H         1.0       0.6334799796045778  0.5925678165904217  0.8770721446097935 1.0000   
         H         H         1.0       0.6968550994632913  0.741238623136474   0.8955457570475235 1.0000   
         H         H         1.0       0.6625003926169946  0.7800432247964346  0.8973364246598305 1.0000   
         H         H         1.0       0.6203608072923527  0.7099732971451066  0.922335330596745  1.0000   
         H         H         1.0       0.6547349004432099  0.6695520333793668  0.9202490038701148 1.0000   
         H         H         1.0       0.7033249118145853  0.6447881894177324  0.9473713143702444 1.0000   
         H         H         1.0       0.7263359477909443  0.6594404056477758  0.9911025460831451 1.0000   
         H         H         1.0       0.7720107146014396  0.7336443082443596  0.9673139925998312 1.0000   
         H         H         1.0       0.7459737176734187  0.7217286701774686  0.9264194618146118 1.0000   
         C         C         1.0       0.7260954727902049  0.7838785298912468  0.6759974072567895 1.0000   
         C         C         1.0       0.7543847889017965  0.7901648527788693  0.6869997651475553 1.0000   
         C         C         1.0       0.7719458637049846  0.7657419602633823  0.6969578970759173 1.0000   
         C         C         1.0       0.7628565466752856  0.7332963299322857  0.6973473151463697 1.0000   
         C         C         1.0       0.7363794451898877  0.7278647844444477  0.6824539784342925 1.0000   
         C         C         1.0       0.7164634598833551  0.7517345363595573  0.6743477937970639 1.0000   
         H         H         1.0       0.7627499416271137  0.8144494385992588  0.6860268054654928 1.0000   
         H         H         1.0       0.7940595534342387  0.7718149346565014  0.703694029942142  1.0000   
         H         H         1.0       0.7268905510421947  0.7035518812109635  0.6803687339807676 1.0000   
         H         H         1.0       0.6942070921614563  0.7452240792060741  0.6666085921917851 1.0000   
         C         C         1.0       0.754777563445467   0.671992469432765   0.7269606871731856 1.0000   
         C         C         1.0       0.7761491087830388  0.6736721826048572  0.7168526578215386 1.0000   
         C         C         1.0       0.7913233209865367  0.6456131744465513  0.7166845798523905 1.0000   
         C         C         1.0       0.7861663639990449  0.6163730986915574  0.72731344852457   1.0000   
         C         C         1.0       0.7647178567975313  0.6165576721729542  0.7383835353374641 1.0000   
         C         C         1.0       0.7492342368021524  0.6439129801405432  0.7375953082204508 1.0000   
         C         C         1.0       0.7872330278940695  0.707175278898707   0.7108865954850885 1.0000   
         C         C         1.0       0.8054107401638753  0.7193352397638751  0.7387020208538301 1.0000   
         C         C         1.0       0.8337806408972033  0.7100946594991937  0.7497370961770526 1.0000   
         C         C         1.0       0.849434635485882   0.7203878369253703  0.7739253923538684 1.0000   
         C         C         1.0       0.8359281737635939  0.7372976942773782  0.7877719488015342 1.0000   
         C         C         1.0       0.8076254230214028  0.7446617610023814  0.7779754325694266 1.0000   
         C         C         1.0       0.7925643717250084  0.7367324023686509  0.7532339013107682 1.0000   
         C         C         1.0       0.7869204432121901  0.6876596018171713  0.6678842484300261 1.0000   
         C         C         1.0       0.8000849832464707  0.6804215317433551  0.6502852161320741 1.0000   
         C         C         1.0       0.8247018023660663  0.6954655550719968  0.6515408081618473 1.0000   
         C         C         1.0       0.8379325624689615  0.7141300299315954  0.67265176218072   1.0000   
         C         C         1.0       0.8271253554495024  0.7176364117612285  0.6915233160502808 1.0000   
         C         C         1.0       0.8016972000141841  0.7041771929407454  0.6894649359017597 1.0000   
         C         C         1.0       0.8390490596412815  0.6871755721832613  0.6311349097431778 1.0000   
         C         C         1.0       0.8597915437536771  0.584299473615065   0.6472508451608644 1.0000   
         C         C         1.0       0.8372229979568386  0.5922903247104747  0.6260145408614329 1.0000   
         C         C         1.0       0.8311420259470129  0.6247932344824876  0.6218391137526571 1.0000   
         C         C         1.0       0.8470385866163517  0.6499478576901578  0.6365083277644182 1.0000   
         C         C         1.0       0.8674844595103314  0.6407410290671272  0.6575074137431156 1.0000   
         C         C         1.0       0.874542941031191   0.6085267249308013  0.6633036840661264 1.0000   
         C         C         1.0       0.8644522623104538  0.71063808268838    0.6317704444221695 1.0000   
         C         C         1.0       0.8629020856359753  0.7437214808700403  0.6325944288838927 1.0000   
         C         C         1.0       0.8858086067102007  0.7626222026913209  0.6344223697939344 1.0000   
         C         C         1.0       0.9112354929175682  0.7492041932530052  0.6348930165970683 1.0000   
         C         C         1.0       0.9123900915869035  0.7162535912182977  0.6314354213674557 1.0000   
         C         C         1.0       0.8889388903589287  0.6973185771689178  0.6297182897328172 1.0000   
         C         C         1.0       0.8263866425854175  0.6783853723810893  0.5831873178885819 1.0000   
         C         C         1.0       0.8124956968408898  0.6839189080981583  0.5588173998727408 1.0000   
         C         C         1.0       0.7901543998446527  0.7045628524712835  0.552368162329909  1.0000   
         C         C         1.0       0.7821088012883055  0.7200502145159429  0.5704883451941761 1.0000   
         C         C         1.0       0.7967311538095708  0.7148607147090831  0.595592128323675  1.0000   
         C         C         1.0       0.8190917748345605  0.6922294686936591  0.602796113632307  1.0000   
         H         H         1.0       0.7392952476376307  0.6921792844107527  0.727494509678927  1.0000   
         H         H         1.0       0.8081158034979475  0.645323501549436   0.7096309204391683 1.0000   
         H         H         1.0       0.8001527859434427  0.5963931457909509  0.729031765426467  1.0000   
         H         H         1.0       0.734213349438193   0.6427441818968366  0.7477309271983174 1.0000   
         H         H         1.0       0.8449739575301717  0.6947248586151888  0.7401467949515835 1.0000   
         H         H         1.0       0.8728819418957848  0.7159400734221524  0.782627903435238  1.0000   
         H         H         1.0       0.7970509905881886  0.7578506159781937  0.7884426790433317 1.0000   
         H         H         1.0       0.7708973996594781  0.742728842523104   0.7462800067437879 1.0000   
         H         H         1.0       0.7662586444500119  0.677562265755387   0.6655931851124802 1.0000   
         H         H         1.0       0.791149792005571   0.6607350536966587  0.635070036274794  1.0000   
         H         H         1.0       0.85740872764576    0.7262724504805279  0.6755680410368103 1.0000   
         H         H         1.0       0.8384219746353957  0.7339455981683647  0.7067539052636562 1.0000   
         H         H         1.0       0.8245163355036231  0.5746556924318801  0.613608598468558  1.0000   
         H         H         1.0       0.8115048559975248  0.6283904612269359  0.6063814828998502 1.0000   
         H         H         1.0       0.878178653660785   0.658130956436769   0.671214882249166  1.0000   
         H         H         1.0       0.8911084289077755  0.6029954715743465  0.6797367779171319 1.0000   
         H         H         1.0       0.844651887726945   0.7571147819646725  0.6339825720615039 1.0000   
         H         H         1.0       0.8857089755356549  0.7868203598496841  0.6405179018893548 1.0000   
         H         H         1.0       0.9312049807575039  0.7049411528172274  0.6317468282181937 1.0000   
         H         H         1.0       0.8916998358414743  0.6722110980547255  0.628166734138303  1.0000   
         H         H         1.0       0.8446002327354399  0.6632922922751631  0.5862817100529886 1.0000   
         H         H         1.0       0.8205719959677349  0.6716932313853551  0.5458220026006722 1.0000   
         H         H         1.0       0.7679740350275119  0.7381554891234812  0.566514953808909  1.0000   
         H         H         1.0       0.7895480521607491  0.7228378922271964  0.610283278272649  1.0000   
         C         C         1.0       0.9492592121715541  0.9934067935164241  0.923956890681701  1.0000   
         C         C         1.0       0.9698507330650804  0.9751802483973776  0.9379970987196746 1.0000   
         C         C         1.0       0.9656107276145538  0.9421989029349725  0.937040069790868  1.0000   
         C         C         1.0       0.9400842203044576  0.9280081284058533  0.9232515796986258 1.0000   
         C         C         1.0       0.919541247246529   0.948659012303107   0.9084139476189119 1.0000   
         C         C         1.0       0.9243834941755108  0.9807459751819813  0.9097934159300595 1.0000   
         H         H         1.0       0.9907415185389715  0.9871157477491884  0.9455618202625536 1.0000   
         H         H         1.0       0.9830414292740884  0.9272323580296258  0.9489016869468496 1.0000   
         H         H         1.0       0.899187975832479   0.9394268848028939  0.895587248709848  1.0000   
         H         H         1.0       0.9074984747755522  0.9957097255223742  0.898093628812567  1.0000   
         C         C         1.0       0.8823687476895461  0.891183566873353   0.9162281996153521 1.0000   
         C         C         1.0       0.9052432617882742  0.8739657383171737  0.9160607563694063 1.0000   
         C         C         1.0       0.9013530144707175  0.8448689078923539  0.9043792927382275 1.0000   
         C         C         1.0       0.8749100757523137  0.8356620811716428  0.8885545781789106 1.0000   
         C         C         1.0       0.8517669243576917  0.8532759982839473  0.8880997284891453 1.0000   
         C         C         1.0       0.8548406083126424  0.8809927571326714  0.902072384915017  1.0000   
         C         C         1.0       0.9365516349682351  0.8893238257614088  0.9267393143829334 1.0000   
         C         C         1.0       0.948998474947984   0.8759134981144968  0.9537431806436889 1.0000   
         C         C         1.0       0.957715210468972   0.8446884290466704  0.959726700381644  1.0000   
         C         C         1.0       0.9720813581786406  0.8352069241417245  0.984011870613716  1.0000   
         C         C         1.0       0.9757767104685787  0.8584274171463753  0.003460347386754048         1.0000   
         C         C         1.0       0.961470680526693   0.88701145458684    0.9984509257298803 1.0000   
         C         C         1.0       0.9481267419387733  0.8962291903498577  0.9733777113401852 1.0000   
         C         C         1.0       0.9432210802833191  0.8845141871332395  0.8841399728276889 1.0000   
         C         C         1.0       0.9545061701751775  0.8729841897687662  0.8663800586006402 1.0000   
         C         C         1.0       0.9754753351665689  0.8501333571056177  0.872236631257754  1.0000   
         C         C         1.0       0.9881141353628833  0.8434020319345699  0.8973077347321755 1.0000   
         C         C         1.0       0.9783013509574615  0.8590192879322772  0.9148895236070171 1.0000   
         C         C         1.0       0.9544846198412181  0.8776297069134834  0.9091619164731366 1.0000   
         C         C         1.0       0.9799937521542779  0.8274837451358318  0.8499114911446908 1.0000   
         C         C         1.0       0.8937082302322094  0.787968567681489   0.8236932075023627 1.0000   
         C         C         1.0       0.9006229121601349  0.8133411141875158  0.8109914202502564 1.0000   
         C         C         1.0       0.9278766758569247  0.8231002175299512  0.8169210835214952 1.0000   
         C         C         1.0       0.9495424566784096  0.8116785916695837  0.8376025682914476 1.0000   
         C         C         1.0       0.9409898504589413  0.7881955338774514  0.8498462763710258 1.0000   
         C         C         1.0       0.9146500748351285  0.7761658497994238  0.8444078538036964 1.0000   
         C         C         1.0       0.519361719364769   0.8309931500929001  0.8667088032712237 1.0000   
         C         C         1.0       0.5385899318171862  0.8327164368525684  0.8908298566316049 1.0000   
         C         C         1.0       0.5604892271572315  0.8096075698097959  0.8988783222579217 1.0000   
         C         C         1.0       0.5664551414781136  0.7898457651980751  0.8808099367403267 1.0000   
         C         C         1.0       0.5494893487606999  0.7920876312457     0.857226248170411  1.0000   
         C         C         1.0       0.52550049633184    0.8106138339282456  0.8501906550156236 1.0000   
         C         C         1.0       0.9897274515162545  0.8393888837387559  0.8076511671065253 1.0000   
         C         C         1.0       0.0031596007160610284         0.8548793336815517 0.7927430763331181 1.0000   
         C         C         1.0       0.018000676426335183          0.882843725610627  0.802166875060792  1.0000   
         C         C         1.0       0.018381487463954294          0.8955317479187359 0.8252639215062215 1.0000   
         C         C         1.0       0.005958182496528686          0.8782105274538768 0.8390575510150704 1.0000   
         C         C         1.0       0.9904955796489059  0.8506802713750976  0.8305230237815167 1.0000   
         H         H         1.0       0.8858712663750916  0.914120411816361   0.92683214082016   1.0000   
         H         H         1.0       0.9177712094263487  0.8291777187917928  0.9059419969335049 1.0000   
         H         H         1.0       0.8710758506861396  0.8124923469341085  0.8781882384419349 1.0000   
         H         H         1.0       0.8386954618162662  0.8976088447913771  0.9008044057839965 1.0000   
         H         H         1.0       0.953372640567753   0.8274566823112068  0.9447448131047673 1.0000   
         H         H         1.0       0.9843711389491301  0.8139865836459871  0.98860235134679   1.0000   
         H         H         1.0       0.002802420137015149          0.9453784086631221 0.48275594980936726          1.0000   
         H         H         1.0       0.9420820836004637  0.9218888708007512  0.971348449561058  1.0000   
         H         H         1.0       0.9258247859903073  0.8991986477973322  0.8757034855519107 1.0000   
         H         H         1.0       0.9465977773116527  0.881896438522587   0.8479999153872505 1.0000   
         H         H         1.0       0.004516919763331906          0.824580567127334  0.9039665656510181 1.0000   
         H         H         1.0       0.9864034261836957  0.8535745630762708  0.9333134902437386 1.0000   
         H         H         1.0       0.888008019477087   0.8237919740981213  0.7945978900263598 1.0000   
         H         H         1.0       0.9306313940644129  0.8423278874066913  0.8053543132041133 1.0000   
         H         H         1.0       0.9576231944917385  0.7798921874780943  0.8663660579745607 1.0000   
         H         H         1.0       0.9093558542448983  0.7582320827756789  0.8550059174511809 1.0000   
         H         H         1.0       0.5362169833987869  0.8486241155771942  0.9045100096367241 1.0000   
         H         H         1.0       0.5709508435654689  0.8115120736419037  0.9180421544652797 1.0000   
         H         H         1.0       0.5534665037272807  0.778493051563805   0.8420893420189357 1.0000   
         H         H         1.0       0.9852310960854765  0.7661450853844192  0.8324764312562535 1.0000   
         H         H         1.0       0.9756020231966667  0.8180621503973193  0.7993555724311833 1.0000   
         H         H         1.0       0.0016862515832647418         0.8449371261410181 0.7750264342935114 1.0000   
         H         H         1.0       0.030463344645208057          0.917117124616968  0.8339094662738598 1.0000   
         H         H         1.0       0.009213923390156475          0.8874950912670533 0.8569367886224042 1.0000   
         C         C         1.0       0.6141255976902115  0.9965999291649793  0.6527110139148846 1.0000   
         C         C         1.0       0.5875194126957485  0.985516598771255   0.640142480836358  1.0000   
         C         C         1.0       0.5838223207937447  0.953771865359538   0.6345829674936215 1.0000   
         C         C         1.0       0.6060831383471194  0.932627233526327   0.6364966027362308 1.0000   
         C         C         1.0       0.6327247331856074  0.9445980395128959  0.6486858766908803 1.0000   
         C         C         1.0       0.6372226263447095  0.9755053662005003  0.6578660701388387 1.0000   
         H         H         1.0       0.5693056644781079  0.0012639183484126626        0.6368808887776672 1.0000   
         H         H         1.0       0.5638809073043446  0.942611462978079   0.6275355761382873 1.0000   
         H         H         1.0       0.6524281844501933  0.9294879549596607  0.6553877022552493 1.0000   
         H         H         1.0       0.6576185193010667  0.9840967816026418  0.6677561534456776 1.0000   
         C         C         1.0       0.6442529970522303  0.8825686447183358  0.6183337996163822 1.0000   
         C         C         1.0       0.6213897492329548  0.8711572932635914  0.6253701125038077 1.0000   
         C         C         1.0       0.6196221079185306  0.8381684615454298  0.6291880235110345 1.0000   
         C         C         1.0       0.642304698122066   0.8197103117534539  0.6318292442338537 1.0000   
         C         C         1.0       0.6668981713253042  0.8312136225675212  0.6284205180691522 1.0000   
         C         C         1.0       0.6666387998257519  0.8625621812562714  0.6200816089750081 1.0000   
         C         C         1.0       0.5973805699414457  0.8951486831153623  0.6270738644581069 1.0000   
         C         C         1.0       0.5756173527802185  0.8910013202056548  0.5986455817708842 1.0000   
         C         C         1.0       0.5624232771917722  0.8618035222275862  0.5889626716918854 1.0000   
         C         C         1.0       0.5423415449233946  0.8594234301418726  0.5654097224286678 1.0000   
         C         C         1.0       0.5377106652935358  0.8848401387009238  0.5496251393475768 1.0000   
         C         C         1.0       0.5530024108489648  0.9135791744289121  0.5581313431206901 1.0000   
         C         C         1.0       0.5721122184300762  0.9157742059947876  0.5827462503725752 1.0000   
         C         C         1.0       0.6073994810308277  0.8830617149742895  0.6736660086624228 1.0000   
         C         C         1.0       0.5992773648663002  0.8713254106605891  0.6918906163521452 1.0000   
         C         C         1.0       0.5741350394565257  0.8563053573247457  0.6890140656358756 1.0000   
         C         C         1.0       0.5544392458199394  0.8569891693191909  0.6651761173264017 1.0000   
         C         C         1.0       0.560180537788591   0.8713620876053626  0.6467661729921387 1.0000   
         C         C         1.0       0.587561734507965   0.883497084915002   0.6492396613764259 1.0000   
         C         C         1.0       0.5700563729925439  0.8351300610200113  0.7109478465227957 1.0000   
         C         C         1.0       0.6363893783431319  0.7678245225288701  0.7100961368346657 1.0000   
         C         C         1.0       0.6405167854508635  0.7879384768554454  0.7300365207634413 1.0000   
         C         C         1.0       0.6206748268015388  0.8100440821877068  0.7309339819530772 1.0000   
         C         C         1.0       0.5944386748437507  0.809918953293834   0.7119662830188016 1.0000   
         C         C         1.0       0.5902277593672708  0.7873345186943804  0.6924670311414977 1.0000   
         C         C         1.0       0.6107433084282113  0.7668599898290345  0.6912593514655859 1.0000   
         C         C         1.0       0.5387642581804194  0.821029413206286   0.7063993447891754 1.0000   
         C         C         1.0       0.5143401278736495  0.8385926894836928  0.6995869432690014 1.0000   
         C         C         1.0       0.9822204317995543  0.8150285157197966  0.6874245068375465 1.0000   
         C         C         1.0       0.9776070772982585  0.7822591506826733  0.6883552791104075 1.0000   
         C         C         1.0       0.9990703877805228  0.7620613059063944  0.7004502370847981 1.0000   
         C         C         1.0       0.5364411377240749  0.7884638365597408  0.7111784097239046 1.0000   
         C         C         1.0       0.5821009210966261  0.8455278467197997  0.7583122340008642 1.0000   
         C         C         1.0       0.5809572457230606  0.8632212497181434  0.7780217581104963 1.0000   
         C         C         1.0       0.5784057723124331  0.8962501888142749  0.7772219595479792 1.0000   
         C         C         1.0       0.5735796512295247  0.9110005814465681  0.7544301030812143 1.0000   
         C         C         1.0       0.5685301640585905  0.8916056392843781  0.7332097137889907 1.0000   
         C         C         1.0       0.575859103193874   0.8587902677206102  0.7350314349746147 1.0000   
         H         H         1.0       0.6450802652979843  0.9081400506304536  0.6140213319107481 1.0000   
         H         H         1.0       0.6004373088187933  0.8276011903676387  0.6317096396260758 1.0000   
         H         H         1.0       0.6429464298609417  0.7949934244073462  0.6384335301664038 1.0000   
         H         H         1.0       0.6849028046261196  0.8731332718685049  0.6165136514114202 1.0000   
         H         H         1.0       0.5676691801042211  0.8408747515300024  0.6010463498678532 1.0000   
         H         H         1.0       0.5319069525436069  0.8375273109232513  0.5582904885498559 1.0000   
         H         H         1.0       0.5493925686761489  0.9340886743623252  0.5461715588914432 1.0000   
         H         H         1.0       0.5847346539815879  0.9373575776807632  0.5887689787433484 1.0000   
         H         H         1.0       0.6282625343115797  0.8924930700850046  0.6775563794246485 1.0000   
         H         H         1.0       0.6160699407923242  0.8709120895861406  0.7088381209499043 1.0000   
         H         H         1.0       0.5373569711057211  0.8409428542345784  0.6606748434329992 1.0000   
         H         H         1.0       0.5456101382878575  0.870246320605158   0.6285822502900577 1.0000   
         H         H         1.0       0.6612241089747518  0.7887592311479926  0.7445223255125306 1.0000   
         H         H         1.0       0.6264426396168423  0.8252855684807137  0.7477315952714229 1.0000   
         H         H         1.0       0.5707425409616202  0.7851012378883477  0.6769778032249013 1.0000   
         H         H         1.0       0.6075289965166322  0.7501031380896164  0.6756503759658102 1.0000   
         H         H         1.0       0.5149174578717546  0.86562398599555    0.6961268633164185 1.0000   
         H         H         1.0       0.9642149556206779  0.8295511803848618  0.6793577916989038 1.0000   
         H         H         1.0       0.9961106565438014  0.7375420077321165  0.704550682078668  1.0000   
         H         H         1.0       0.5538208825252181  0.7745985942799443  0.7214203825668996 1.0000   
         H         H         1.0       0.5859500623077211  0.8189671348263441  0.7601126763335059 1.0000   
         H         H         1.0       0.5820387626979461  0.8511295243035772  0.794272317952221  1.0000   
         H         H         1.0       0.5689709714433712  0.9362356917016217  0.7503225366112348 1.0000   
         H         H         1.0       0.5610480722802278  0.9019886815745009  0.7154290739121113 1.0000   
         C         C         1.0       0.6784483202629923  0.4848022809762352  0.8904508782389117 1.0000   
         C         C         1.0       0.7040622613992732  0.47144996695721303           0.9027114484002449 1.0000   
         C         C         1.0       0.706004683185857   0.4402680035624068  0.9111386911758397 1.0000   
         C         C         1.0       0.6818065543916092  0.42166297555824916           0.9055962871457087 1.0000   
         C         C         1.0       0.6560433352273427  0.4355021139782614  0.8916053682137408 1.0000   
         C         C         1.0       0.6553338474726563  0.46640848342811614           0.8841101330604209 1.0000   
         H         H         1.0       0.7221304770180252  0.48693665088424753           0.9088662446580769 1.0000   
         H         H         1.0       0.7266884621389357  0.4312032945280093  0.9236226533309329 1.0000   
         H         H         1.0       0.6360325077832436  0.4239127693597528  0.8839993558972611 1.0000   
         H         H         1.0       0.6350609193065232  0.47261821788523206           0.870071413255894  1.0000   
         C         C         1.0       0.6304608785002332  0.3777868392249457  0.9108229006221227 1.0000   
         C         C         1.0       0.655722458850277   0.36377963903332383           0.9084775784046543 1.0000   
         C         C         1.0       0.6536954157222519  0.33056758695146105           0.9021425218287434 1.0000   
         C         C         1.0       0.6278512897844332  0.313675199742221   0.8937697033464843 1.0000   
         C         C         1.0       0.6031888804449468  0.3295359354925604  0.8920761883583869 1.0000   
         C         C         1.0       0.6053800687051848  0.360333654362003   0.9025090802485158 1.0000   
         C         C         1.0       0.684712489370803   0.3845379854060249  0.9134556978950171 1.0000   
         C         C         1.0       0.7006290524837118  0.3801684601444732  0.942667234382911  1.0000   
         C         C         1.0       0.7097249664381663  0.34959635253442306           0.9517566322916176 1.0000   
         C         C         1.0       0.7259086230488813  0.3458959021402064  0.9772199956255999 1.0000   
         C         C         1.0       0.7317623143173596  0.3726939523342612  0.9935410821862285 1.0000   
         C         C         1.0       0.7202686830218363  0.4023119602850024  0.985453686383416  1.0000   
         C         C         1.0       0.7060071388515554  0.4057534842994187  0.9604376637868572 1.0000   
         C         C         1.0       0.6863515975422725  0.37404501879950885           0.8703634446774308 1.0000   
         C         C         1.0       0.6966564995448284  0.35945300722944107           0.8526831583499652 1.0000   
         C         C         1.0       0.721963158240986   0.34077033856303257           0.8610477817442586 1.0000   
         C         C         1.0       0.7342017403505685  0.3370732055349723  0.8854102330417327 1.0000   
         C         C         1.0       0.7238845001113803  0.3525231136693414  0.9024096551082471 1.0000   
         C         C         1.0       0.6998024180031827  0.36948259428489766           0.8955701247068752 1.0000   
         C         C         1.0       0.7300039692603855  0.322362295761652   0.8403467074467993 1.0000   
         C         C         1.0       0.6517833190352461  0.26552560748543586           0.8213064940412312 1.0000   
         C         C         1.0       0.6547571319830876  0.287091837540707   0.8039307475952402 1.0000   
         C         C         1.0       0.6802279842177208  0.3041071484879995  0.8092314726642985 1.0000   
         C         C         1.0       0.7026425484085886  0.2987195601933507  0.8303524113993066 1.0000   
         C         C         1.0       0.6998354092291581  0.2735980693835899  0.8454491599569708 1.0000   
         C         C         1.0       0.675142792999629   0.25647886627766375           0.839925205038503  1.0000   
         C         C         1.0       0.7603666273761528  0.30443724476005557           0.8480608825511238 1.0000   
         C         C         1.0       0.7854451277997775  0.31884763095446184           0.8635482051264014 1.0000   
         C         C         1.0       0.8099653133030223  0.3020214172500938  0.8707892665215278 1.0000   
         C         C         1.0       0.8108366850695921  0.2712917912871032  0.861739580303405  1.0000   
         C         C         1.0       0.7861711834277687  0.25692380495351225           0.8470182073056247 1.0000   
         C         C         1.0       0.7615313347854792  0.2732163756150492  0.8398926304698865 1.0000   
         C         C         1.0       0.7363794783001232  0.33792940993884324           0.7991769826221945 1.0000   
         C         C         1.0       0.7460261131304082  0.3573874167492342  0.7843100753465339 1.0000   
         C         C         1.0       0.7561060554174074  0.3878856077030727  0.7936649820502464 1.0000   
         C         C         1.0       0.7607552069234321  0.39665081151427234           0.8184961145191417 1.0000   
         C         C         1.0       0.7495342693564044  0.377154832178338   0.8319541051726601 1.0000   
         C         C         1.0       0.736716191975211   0.3474620003578308  0.8224541079881649 1.0000   
         H         H         1.0       0.6294718093536482  0.4021826999996074  0.9199164017295226 1.0000   
         H         H         1.0       0.6725056953708592  0.31507831732671565           0.9032647504243302 1.0000   
         H         H         1.0       0.6285513277030277  0.28980489831164347           0.8874204965895302 1.0000   
         H         H         1.0       0.5865315948892681  0.3710776008037688  0.9027299307843254 1.0000   
         H         H         1.0       0.7078551762010341  0.32878464593596585           0.9398231856601529 1.0000   
         H         H         1.0       0.7344249152733894  0.3230097459671616  0.9855846527089459 1.0000   
         H         H         1.0       0.7266149196321896  0.4238957836692274  0.9967439209235646 1.0000   
         H         H         1.0       0.6975232058721452  0.4292611886936627  0.9546926605162162 1.0000   
         H         H         1.0       0.6678827208724937  0.3893784373996489  0.861827620943314  1.0000   
         H         H         1.0       0.6864911477236272  0.3655922615417046  0.8335822501905505 1.0000   
         H         H         1.0       0.7515076117916186  0.32181387518025384           0.8915084156042463 1.0000   
         H         H         1.0       0.7370324758777359  0.35083575788329485           0.920858618915887  1.0000   
         H         H         1.0       0.6372102738626476  0.29386506690581377           0.7882215671505933 1.0000   
         H         H         1.0       0.6798028158594926  0.3263348601676373  0.7988064230486098 1.0000   
         H         H         1.0       0.715027924071753   0.2717229881181263  0.8638471959408602 1.0000   
         H         H         1.0       0.6742048448604577  0.23793832534730974           0.8529855911432354 1.0000   
         H         H         1.0       0.7834818296084783  0.3433846587779461  0.8686004745055304 1.0000   
         H         H         1.0       0.8277971778680312  0.31608516454906377           0.8825883632130372 1.0000   
         H         H         1.0       0.7888991128083187  0.23576863445832458           0.8360202895159257 1.0000   
         H         H         1.0       0.7441217934264317  0.2630417010394278  0.8244371068633571 1.0000   
         H         H         1.0       0.7279156654103924  0.31441601634079874           0.790035681714904  1.0000   
         H         H         1.0       0.7447602870448163  0.3505821878939578  0.7662599496145281 1.0000   
         H         H         1.0       0.7726790939761228  0.4185798719467726  0.8296322334497657 1.0000   
         H         H         1.0       0.7511597963379962  0.3839629735963123  0.8518180147948273 1.0000   
         C         C         1.0       0.8696035221079252  0.49406313425689463           0.6351546184037109 1.0000   
         C         C         1.0       0.8452832542099453  0.47999267814769675           0.6192656497747858 1.0000   
         C         C         1.0       0.8433158727841357  0.44646646184359334           0.617230802104353  1.0000   
         C         C         1.0       0.8661647417609909  0.42792768486144667           0.6313667145915994 1.0000   
         C         C         1.0       0.8884058102508384  0.44434125250157147           0.6476666290465992 1.0000   
         C         C         1.0       0.8912111834362823  0.47729260967990067           0.6501175362423285 1.0000   
         H         H         1.0       0.8306317997733259  0.49548647730172446           0.6065196657627835 1.0000   
         H         H         1.0       0.823853365858467   0.4356500945404064  0.6050313562645004 1.0000   
         H         H         1.0       0.9051957623702618  0.4301846070709998  0.6580029695343875 1.0000   
         H         H         1.0       0.9099084430543414  0.4871658220961656  0.6630704710638582 1.0000   
         C         C         1.0       0.9167843237562616  0.38229809745818133           0.6308005655345897 1.0000   
         C         C         1.0       0.891818700345722   0.3686196448379396  0.6328395596232792 1.0000   
         C         C         1.0       0.8924801687653879  0.336090755610495   0.6377578175698646 1.0000   
         C         C         1.0       0.9180924536362145  0.31964296878497067           0.6440012079230828 1.0000   
         C         C         1.0       0.9426702222528083  0.335078536198448   0.645459145493247  1.0000   
         C         C         1.0       0.9421296264396618  0.366377742002104   0.6376082296988629 1.0000   
         C         C         1.0       0.8630455259055932  0.3898959650146115  0.6289105943300681 1.0000   
         C         C         1.0       0.8457588898794495  0.37557199709122324           0.6012254939713998 1.0000   
         C         C         1.0       0.829606567201396   0.3476886633809338  0.5970836685898525 1.0000   
         C         C         1.0       0.8128918722093205  0.33724268564770005           0.5734387117702869 1.0000   
         C         C         1.0       0.8113236400509526  0.3570814757789492  0.5533688560438671 1.0000   
         C         C         1.0       0.8289886071923422  0.3836597021667346  0.5565241993781853 1.0000   
         C         C         1.0       0.8479637137396898  0.3909161627806768  0.5805092817510769 1.0000   
         C         C         1.0       0.866136114152907   0.3821848336812521  0.6741327777344591 1.0000   
         C         C         1.0       0.8574965833596394  0.3711395385373546  0.692820905214851  1.0000   
         C         C         1.0       0.829729174940476   0.359153447696219   0.6874332844791821 1.0000   
         C         C         1.0       0.8112095539415344  0.3623076681691758  0.6620691356313981 1.0000   
         C         C         1.0       0.8191133327730946  0.37676109123912116           0.643429650419044  1.0000   
         C         C         1.0       0.8465926332043388  0.3859702639805945  0.6494405149319261 1.0000   
         C         C         1.0       0.8223075140870937  0.33558366952860846           0.706989226123628  1.0000   
         C         C         1.0       0.8949498547704777  0.27185239197810046           0.7102335729672271 1.0000   
         C         C         1.0       0.894946424360863   0.29263263772564546           0.7289997446010801 1.0000   
         C         C         1.0       0.8715006211875801  0.3109026144992972  0.7293519287438669 1.0000   
         C         C         1.0       0.846385976219625   0.30886012981789734           0.7083892980524217 1.0000   
         C         C         1.0       0.8462527983851826  0.2862057721927946  0.690308921257076  1.0000   
         C         C         1.0       0.869983173663369   0.2677206041878507  0.6903891469101995 1.0000   
         C         C         1.0       0.7916534008253692  0.31855925890627945           0.6962262505642952 1.0000   
         C         C         1.0       0.7677004465785274  0.3382315526195234  0.6880761190125393 1.0000   
         C         C         1.0       0.7415370556545343  0.3242226231472277  0.6803084514482924 1.0000   
         C         C         1.0       0.7372737195876011  0.29097568879823    0.6784105193694389 1.0000   
         C         C         1.0       0.7615622313075375  0.2722599613887059  0.6852299596314406 1.0000   
         C         C         1.0       0.7872404179411235  0.28508081448742245           0.69561234462579   1.0000   
         C         C         1.0       0.8195759850164779  0.33653530098382745           0.750826326896087  1.0000   
         C         C         1.0       0.8126599288574992  0.35203556684970955           0.7698739071429619 1.0000   
         C         C         1.0       0.8104515571619773  0.3849485399037726  0.7701226226411724 1.0000   
         C         C         1.0       0.8141909899001831  0.4018373105845766  0.7507502694163836 1.0000   
         C         C         1.0       0.8184214529902643  0.38675103894512775           0.7311598510506945 1.0000   
         C         C         1.0       0.8219542938947948  0.3532534592351794  0.7304990828246377 1.0000   
         H         H         1.0       0.9155920758760157  0.405929813314835   0.6228368216091786 1.0000   
         H         H         1.0       0.8737873323745802  0.3225910527881948  0.6377858019726029 1.0000   
         H         H         1.0       0.9179592076591802  0.2935649761032538  0.648275375443476  1.0000   
         H         H         1.0       0.9614669350016203  0.37544566693485404           0.634941305431649  1.0000   
         H         H         1.0       0.8254749083543073  0.33344409812807074           0.6111133953523318 1.0000   
         H         H         1.0       0.800516506529124   0.3159408097507013  0.5702368055113072 1.0000   
         H         H         1.0       0.8275627529249228  0.3991170847435448  0.5415865996416337 1.0000   
         H         H         1.0       0.8628173985056815  0.4111166093301262  0.5814882357380141 1.0000   
         H         H         1.0       0.8871888293119629  0.3927542572988821  0.6786196416989069 1.0000   
         H         H         1.0       0.8723782388427104  0.37065617469359186           0.7120985047833613 1.0000   
         H         H         1.0       0.7890273536941809  0.35586784062075216           0.6559366320807779 1.0000   
         H         H         1.0       0.80435764061742    0.3777833048907453  0.6243574898613979 1.0000   
         H         H         1.0       0.9114392289985983  0.29354049101838425           0.7474856945339685 1.0000   
         H         H         1.0       0.8724685363633581  0.3230624911780629  0.7470757166479736 1.0000   
         H         H         1.0       0.8296836364995795  0.2857576700544969  0.6730913926726985 1.0000   
         H         H         1.0       0.8687421677003255  0.25352179012066395           0.6736432362661473 1.0000   
         H         H         1.0       0.7702441746302603  0.3646330789896617  0.6896688171209818 1.0000   
         H         H         1.0       0.724198122944236   0.33952857693525956           0.6746809474580132 1.0000   
         H         H         1.0       0.7591542684868212  0.24630126003570746           0.683587054089215  1.0000   
         H         H         1.0       0.8033143969286822  0.2673230607674276  0.7033441160401478 1.0000   
         H         H         1.0       0.8181122747247362  0.3100440102469734  0.7509011260295845 1.0000   
         H         H         1.0       0.811252493454974   0.33879824133460745           0.7856359935811303 1.0000   
         H         H         1.0       0.8116824212047649  0.4280607300217754  0.7502300401749807 1.0000   
         H         H         1.0       0.8179093269807964  0.40082291192637726           0.7150801519697872 1.0000   
         C         C         1.0       0.550775663132645   0.27600225275428386           0.8419718716545673 1.0000   
         C         C         1.0       0.5250947534161311  0.28086116697298447           0.8246569502910215 1.0000   
         C         C         1.0       0.5084548923700102  0.25424005239789976           0.8143985557282953 1.0000   
         C         C         1.0       0.5190412762008391  0.2235883321073767  0.8187244508761554 1.0000   
         C         C         1.0       0.5465262719381802  0.21926569399587836           0.8356965294361234 1.0000   
         C         C         1.0       0.5608724302767186  0.2450973001677862  0.849479224312979  1.0000   
         H         H         1.0       0.5119290135147792  0.3028903612376637  0.8217750090251755 1.0000   
         H         H         1.0       0.9860399435872357  0.2772715926485441  0.8280844276279743 1.0000   
         H         H         1.0       0.5549126064475168  0.19384738230606088           0.8399957629384013 1.0000   
         H         H         1.0       0.5836583987205005  0.23982465910529882           0.8611381998961696 1.0000   
         C         C         1.0       0.5345900744190645  0.16202818318403162           0.7914534630650444 1.0000   
         C         C         1.0       0.023084697615318506          0.18237455256708376          0.8233904453258848 1.0000   
         C         C         1.0       0.013276372600152131          0.1525277966978516 0.8255915119790187 1.0000   
         C         C         1.0       0.021854411939488116          0.12521329675635703          0.8147590918994786 1.0000   
         C         C         1.0       0.5277148273283258  0.10765057690187539           0.7771886707705764 1.0000   
         C         C         1.0       0.5417850075991545  0.1361499557541005  0.7795515775392429 1.0000   
         C         C         1.0       0.006331813031021705          0.2128493838189227 0.8263335981903096 1.0000   
         C         C         1.0       0.9844341638239064  0.21731947704015422           0.7986984048898612 1.0000   
         C         C         1.0       0.9601349312024989  0.2016690659477461  0.7907606321794044 1.0000   
         C         C         1.0       0.9423293153407252  0.20440571559364334           0.7663332392799068 1.0000   
         C         C         1.0       0.9493560538124569  0.22588534044228645           0.7507006700237066 1.0000   
         C         C         1.0       0.9752535191190762  0.24123611948457205           0.7589526831162025 1.0000   
         C         C         1.0       0.992335658022938   0.23812063701361708           0.7823385573898209 1.0000   
         C         C         1.0       0.012068538156879027          0.20159404765769695          0.8717829448098404 1.0000   
         C         C         1.0       0.003303626920676317          0.1929317803991564 0.8909117620021677 1.0000   
         C         C         1.0       0.9731496641201187  0.19435838932918711           0.8880014668664403 1.0000   
         C         C         1.0       0.9552286448240025  0.2037606461697206  0.8654111128144197 1.0000   
         C         C         1.0       0.9648074970059519  0.21157183430274198           0.846480051376336  1.0000   
         C         C         1.0       0.9930182993178118  0.20830190431935086           0.8483810841581859 1.0000   
         C         C         1.0       0.9620766608483926  0.18499300400289098           0.909977492107482  1.0000   
         C         C         1.0       0.9621885384894857  0.07974518300945319           0.9053861062219484 1.0000   
         C         C         1.0       0.9829953542568933  0.09532985617609689           0.9239281161682269 1.0000   
         C         C         1.0       0.985033988257081   0.12868450252701785           0.9241079432886496 1.0000   
         C         C         1.0       0.9629593922488109  0.14684427810617953           0.9085816251339357 1.0000   
         C         C         1.0       0.9412890768056642  0.12972262679798963           0.8908426381857396 1.0000   
         C         C         1.0       0.9419174166814464  0.09717453206866454           0.8886172685580666 1.0000   
         C         C         1.0       0.9328849056166635  0.2014954922769277  0.9089482257241077 1.0000   
         C         C         1.0       0.928262419099088   0.233922538416532   0.904712175752705  1.0000   
         C         C         1.0       0.9021743535250994  0.24672934579691014           0.9021099906766902 1.0000   
         C         C         1.0       0.880606566832953   0.22861651940377786           0.9051378442174646 1.0000   
         C         C         1.0       0.8854732758609669  0.19809148756041348           0.9113475961242249 1.0000   
         C         C         1.0       0.9110139175187991  0.18431663206759763           0.9126437124527635 1.0000   
         C         C         1.0       0.9789071398080484  0.1871511347090504  0.9580923165553361 1.0000   
         C         C         1.0       0.9944727093295274  0.19843224178575142           0.9807872476461679 1.0000   
         C         C         1.0       0.0064128194130490535         0.22893925298472598          0.983067990630187  1.0000   
         C         C         1.0       0.5166353457120743  0.19401837308905762           0.9406874404504539 1.0000   
         C         C         1.0       0.9963836110851785  0.22989889056131427           0.938710319108221  1.0000   
         C         C         1.0       0.9803317058620267  0.2004539820206958  0.9364138951651391 1.0000   
         H         H         1.0       0.542378241912988   0.1856021869003467  0.7888725594794754 1.0000   
         H         H         1.0       0.9949969888396282  0.14757768142418773           0.8327842331278817 1.0000   
         H         H         1.0       0.01285950498210009           0.10186289066555991          0.813850094883709  1.0000   
         H         H         1.0       0.558315623217836   0.13789398693013358           0.7710705747199025 1.0000   
         H         H         1.0       0.9538239413962599  0.1847022565994633  0.8023523680816976 1.0000   
         H         H         1.0       0.9220492616971216  0.19369505693228456           0.7586165971917717 1.0000   
         H         H         1.0       0.9810303111444183  0.25862173339119415           0.7470819552446772 1.0000   
         H         H         1.0       0.5071002237048436  0.2288936635438342  0.7666931656704769 1.0000   
         H         H         1.0       0.5138677250666882  0.15808844634756103           0.8457707517330445 1.0000   
         H         H         1.0       0.01814064048054953           0.18418476593142352          0.9067412782024745 1.0000   
         H         H         1.0       0.9329429951423234  0.20720512330526947           0.8613424020409809 1.0000   
         H         H         1.0       0.9494012959496262  0.21988580825277088           0.8293956265604889 1.0000   
         H         H         1.0       0.00036031494438204525        0.08142086543094958          0.9365513070174615 1.0000   
         H         H         1.0       0.0031130325019335103         0.13863179697584094          0.9380349525677678 1.0000   
         H         H         1.0       0.925014865160595   0.14267297369348564           0.8771115132270838 1.0000   
         H         H         1.0       0.9265818814611445  0.08392329126467298           0.8736438528493445 1.0000   
         H         H         1.0       0.9443924945150953  0.24909864645273436           0.9026152114368619 1.0000   
         H         H         1.0       0.8990259040522992  0.2709609158419705  0.8955276435047104 1.0000   
         H         H         1.0       0.8682989357622514  0.18465838717728483           0.9142838697834347 1.0000   
         H         H         1.0       0.9089688233898768  0.15894091344064998           0.9174638828539273 1.0000   
         H         H         1.0       0.9654816549312132  0.16584331801102153           0.9563032343642445 1.0000   
         H         H         1.0       0.9651827195207932  0.12848465339925957           0.48411692420555   1.0000   
         H         H         1.0       0.5374075706050023  0.20117952041040135           0.9423264749678381 1.0000   
         H         H         1.0       0.5005880297710287  0.21041377197400182           0.9027983896971502 1.0000   
         C         C         1.0       0.9989265110554081  0.2858220267200311  0.6918697675300243 1.0000   
         C         C         1.0       0.5132814142041057  0.2818128305398207  0.677625435038676  1.0000   
         C         C         1.0       0.5314528167369539  0.2572199374699974  0.686909340873279  1.0000   
         C         C         1.0       0.5235959324144308  0.2253598528956283  0.6849439575173094 1.0000   
         C         C         1.0       0.4959327355077343  0.2176526339123583  0.6685315117625741 1.0000   
         C         C         1.0       0.9864533416138513  0.2547286773366745  0.6894514763660429 1.0000   
         H         H         1.0       0.5186860265463512  0.30732902525564354           0.6823548023830175 1.0000   
         H         H         1.0       0.5508430402880076  0.2646564637451382  0.6989930139015396 1.0000   
         H         H         1.0       0.9941102972844966  0.20344181553597726           0.694453086479666  1.0000   
         H         H         1.0       0.9643064949585115  0.2501661836547386  0.6822181768378659 1.0000   
         C         C         1.0       0.5100706042088857  0.1623994133141917  0.7094881976323448 1.0000   
         C         C         1.0       0.5326687855855285  0.16387099037331243           0.6997282890239914 1.0000   
         C         C         1.0       0.5456583274293558  0.13505480627104816           0.6983037126013323 1.0000   
         C         C         1.0       0.5403520839962982  0.10787478324310953           0.7093925956160568 1.0000   
         C         C         1.0       0.5188564848277456  0.10816516304024579           0.7194264553076947 1.0000   
         C         C         1.0       0.5030432805361902  0.13513355544562689           0.718813337154456  1.0000   
         C         C         1.0       0.5457288263287305  0.19792776040866963           0.6964966730128654 1.0000   
         C         C         1.0       0.5672997852403056  0.20705829039132034           0.7236245540115493 1.0000   
         C         C         1.0       0.5949208844554604  0.19471821622497423           0.7331870198892277 1.0000   
         C         C         1.0       0.6118671988648909  0.19970645586266678           0.7574931155712765 1.0000   
         C         C         1.0       0.601723515553102   0.2180372767651692  0.773333620548489  1.0000   
         C         C         1.0       0.5753731535622778  0.23216035423607848           0.7638339356043429 1.0000   
         C         C         1.0       0.5587533879219372  0.2285815120957628  0.7386920008381003 1.0000   
         C         C         1.0       0.5467228885775878  0.18221147660556708           0.6533762096781391 1.0000   
         C         C         1.0       0.5573421807365525  0.1806328280571541  0.6336642259887292 1.0000   
         C         C         1.0       0.5832404636548242  0.19337606131478222           0.6367188699922739 1.0000   
         C         C         1.0       0.5955221799147525  0.21259384595628308           0.6572953306818087 1.0000   
         C         C         1.0       0.5857425825706831  0.21365150107251019           0.6769808632569052 1.0000   
         C         C         1.0       0.5603330907558449  0.197415264165851   0.6752127408356057 1.0000   
         C         C         1.0       0.5987422715686698  0.1854246255566754  0.6159911594741466 1.0000   
         C         C         1.0       0.6174186752476575  0.08414165306697781           0.6338679674754392 1.0000   
         C         C         1.0       0.5980148869968349  0.09225231332994462           0.6117585711914604 1.0000   
         C         C         1.0       0.5927949018880028  0.12364993958303717           0.6060864616710476 1.0000   
         C         C         1.0       0.6067864137017156  0.14884501793481822           0.6228038751297909 1.0000   
         C         C         1.0       0.6229604399409294  0.13902383605822907           0.6465671304705811 1.0000   
         C         C         1.0       0.6286010847105569  0.10791365719635047           0.6518382550252625 1.0000   
         C         C         1.0       0.6254246370022093  0.20712835409217395           0.6186507270175929 1.0000   
         C         C         1.0       0.6221039566609997  0.23917452601873362           0.6182717036112846 1.0000   
         C         C         1.0       0.6448600051297574  0.25959433956554256           0.6241516763783184 1.0000   
         C         C         1.0       0.6716153832235606  0.2484466088362079  0.6303395120328394 1.0000   
         C         C         1.0       0.6746667339036616  0.21617447707280943           0.6286555678975182 1.0000   
         C         C         1.0       0.6512942484128099  0.19564624157232435           0.6225722958597445 1.0000   
         C         C         1.0       0.5932769941963445  0.17648313545921185           0.5693192675289868 1.0000   
         C         C         1.0       0.5785583010443668  0.17787926849146884           0.5446256309672804 1.0000   
         C         C         1.0       0.5516605845320104  0.18991011930992102           0.5353008078249357 1.0000   
         C         C         1.0       0.5400238630455245  0.2014662549441908  0.551988604893541  1.0000   
         C         C         1.0       0.5543686972783528  0.2028305386015681  0.57655937777642   1.0000   
         C         C         1.0       0.581594797989688   0.18978577218681483           0.5866081624099043 1.0000   
         H         H         1.0       0.49872450478140484           0.1842664983791384 0.7113861197719823 1.0000   
         H         H         1.0       0.5631454447688676  0.13376269509048055           0.6912414509859993 1.0000   
         H         H         1.0       0.5549618056471609  0.08778529943202629           0.7122689344750555 1.0000   
         H         H         1.0       0.006022329708785135          0.15015696370574946          0.755874557737753  1.0000   
         H         H         1.0       0.6026542112599861  0.1796277511046244  0.7209856998183275 1.0000   
         H         H         1.0       0.6332987603484371  0.19253902696061878           0.7652521646895158 1.0000   
         H         H         1.0       0.5656786730107671  0.24349561199414663           0.7758611463111869 1.0000   
         H         H         1.0       0.5363044243078992  0.2352179783397205  0.7331919214391004 1.0000   
         H         H         1.0       0.5278301845731591  0.1697879192175415  0.6505873785045885 1.0000   
         H         H         1.0       0.5474104062911888  0.1629545019861446  0.6193732497114709 1.0000   
         H         H         1.0       0.6147789558404748  0.22545401464845266           0.6588539676193945 1.0000   
         H         H         1.0       0.5963356710436303  0.22924192455711584           0.6928198497054088 1.0000   
         H         H         1.0       0.5866557323330562  0.07340279170904904           0.598581680483621  1.0000   
         H         H         1.0       0.5783612443107123  0.1276896260402404  0.5878021620437929 1.0000   
         H         H         1.0       0.6359014834879386  0.156653176241367   0.6603592809568348 1.0000   
         H         H         1.0       0.6410593079281237  0.10198960956748311           0.6704992005850439 1.0000   
         H         H         1.0       0.600507514588457   0.24864313327825005           0.6154638888047291 1.0000   
         H         H         1.0       0.6390824209598429  0.28479194021009874           0.6230753638772574 1.0000   
         H         H         1.0       0.6953660311758145  0.20556450499599838           0.6340245290005739 1.0000   
         H         H         1.0       0.6531598395065797  0.17092945885658822           0.6201678566901988 1.0000   
         H         H         1.0       0.6149338338629052  0.16567966334461573           0.5748540550927248 1.0000   
         H         H         1.0       0.5888078245768114  0.16781286748345672           0.533438340417819  1.0000   
         H         H         1.0       0.5204363994349108  0.21373628092574107           0.5450715819938475 1.0000   
         H         H         1.0       0.5487755533863651  0.21696243038587418           0.5904251160385877 1.0000   
         C         C         1.0       0.5193119925457201  0.21875238028545693           0.49405868125957986          1.0000   
         C         C         1.0       0.5363870918745878  0.1880462338812603  0.5062627285866617 1.0000   
         H         H         1.0       0.5334840082268711  0.2397076138484824  0.4980724429577409 1.0000   
         H         H         1.0       0.5042680420185128  0.22548064319782954           0.50231974157628   1.0000   
         H         H         1.0       0.5219213662890405  0.16754402593840845           0.5024296726438258 1.0000   
         H         H         1.0       0.553109831835316   0.18248514962089435           0.4977058408724631 1.0000   
         C         C         1.0       0.514883449233869   0.07867538716504595           0.7344321749769134 1.0000   
         C         C         1.0       0.04970367567792988           0.09812829247222939          0.7903812621251244 1.0000   
         H         H         1.0       0.49379397675563896           0.07645851422168538          0.735715671405906  1.0000   
         H         H         1.0       0.5227864185542     0.056717396224286114         0.7267512100287055 1.0000   
         H         H         1.0       0.047872112906511166          0.07571036711134216          0.8003774071950212 1.0000   
         H         H         1.0       0.5577162958880973  0.07859994038094548           0.7635517143829625 1.0000   
         C         C         1.0       0.7078093172850691  0.27542396668247765           0.6673622006574499 1.0000   
         C         C         1.0       0.6982225224911095  0.27082559695214703           0.6399683862562929 1.0000   
         H         H         1.0       0.7085644580206147  0.25309986463598017           0.6758751587799924 1.0000   
         H         H         1.0       0.6929642775727061  0.292685966840758   0.6728025632330045 1.0000   
         H         H         1.0       0.6968739836980694  0.2933173624834933  0.6286629228098969 1.0000   
         H         H         1.0       0.7158133757541383  0.26003578247542614           0.6358618718797534 1.0000   
         C         C         1.0       0.9792450334214111  0.3128698253902135  0.6825487454277153 1.0000   
         C         C         1.0       0.9697517357495109  0.3179862509469617  0.6542666675339265 1.0000   
         H         H         1.0       0.9865330964825597  0.33658860000094254           0.691030663166803  1.0000   
         H         H         1.0       0.9607873711020849  0.30925454669105285           0.6894600395914513 1.0000   
         H         H         1.0       0.9670848443005354  0.29581973425012975           0.6424307971996607 1.0000   
         H         H         1.0       0.9866573441749071  0.3292737929311019  0.651041306001587  1.0000   
         C         C         1.0       0.9242793524394178  0.2593720463084918  0.71070608887352   1.0000   
         C         C         1.0       0.9315952876358927  0.22537180517798586           0.7211483078924025 1.0000   
         H         H         1.0       0.9212331012963693  0.2603265746496642  0.6911837754786455 1.0000   
         H         H         1.0       0.941118686509264   0.2761805227591981  0.7191229733461708 1.0000   
         H         H         1.0       0.9462454039853668  0.21305709692023986           0.7129811056643915 1.0000   
         H         H         1.0       0.91252728870491    0.2103208412009337  0.716603107616953  1.0000   
         C         C         1.0       0.5752731866779602  0.31136266126016704           0.879364790433435  1.0000   
         C         C         1.0       0.5694838437537643  0.3044930525845686  0.8515019863051989 1.0000   
         H         H         1.0       0.5583739035460542  0.3247902434418552  0.8827092456488472 1.0000   
         H         H         1.0       0.5754732977191216  0.28697557907664134           0.8897460007981262 1.0000   
         H         H         1.0       0.5889023640961608  0.2970326576791937  0.8477184858874854 1.0000   
         H         H         1.0       0.5598990442150641  0.3259502362484438  0.8404669159992344 1.0000   
         C         C         1.0       0.8403374022681178  0.25412255794231253           0.8695506019168651 1.0000   
         C         C         1.0       0.850444994149133   0.24234176923085032           0.8966507939327054 1.0000   
         H         H         1.0       0.8390034108560076  0.2319141534690567  0.857517228738654  1.0000   
         H         H         1.0       0.8560090045072567  0.27095441627277933           0.8658279466440687 1.0000   
         H         H         1.0       0.8509415228899393  0.2631414000070183  0.9082776887077103 1.0000   
         H         H         1.0       0.8360840340684389  0.22303208463204158           0.8990841786152154 1.0000   
         C         C         1.0       0.6150030886636157  0.21573733174324186           0.801008272791106  1.0000   
         C         C         1.0       0.6210576708344677  0.24960470461803894           0.8153975970668047 1.0000   
         H         H         1.0       0.5994275093450364  0.20621308369486713           0.8081767214452396 1.0000   
         H         H         1.0       0.633872118511544   0.20004962775891036           0.8075691178479709 1.0000   
         H         H         1.0       0.6173291778653689  0.2433454253201258  0.8331017327806881 1.0000   
         H         H         1.0       0.6061949376365944  0.2654677062541974  0.8041648284794538 1.0000   
         C         C         1.0       0.7652102542469467  0.3804929318733241  0.5218608869315116 1.0000   
         C         C         1.0       0.7850923018800614  0.35089296616793686           0.5290532528517721 1.0000   
         H         H         1.0       0.7519826667548334  0.3797580977773093  0.534692855263849  1.0000   
         H         H         1.0       0.7775775779117583  0.4034457016460091  0.5279502536544782 1.0000   
         H         H         1.0       0.7901334806180855  0.38023559947848873           0.009953649431730494         1.0000   
         H         H         1.0       0.7862773151387328  0.34010542151753703           0.013842944177128835         1.0000   
         C         C         1.0       0.770239515650102   0.41187324648304785           0.7820628377394878 1.0000   
         C         C         1.0       0.8025510777414797  0.4018464212201432  0.7906463077851653 1.0000   
         H         H         1.0       0.7627383770894516  0.4133479232538713  0.761343152862845  1.0000   
         H         H         1.0       0.7686491362256045  0.4377472224393667  0.7879214626506806 1.0000   
         H         H         1.0       0.8105757127760709  0.3897903627228995  0.8087271692770805 1.0000   
         H         H         1.0       0.8158524840217473  0.42438857479566894           0.7969461791078503 1.0000   
         C         C         1.0       0.6199798883846355  0.03258943048315375           0.6588829075512977 1.0000   
         C         C         1.0       0.6274757688684195  0.049132788137580055         0.6382239673038643 1.0000   
         H         H         1.0       0.6011221084687492  0.04127837592238221           0.6635666173031173 1.0000   
         H         H         1.0       0.6370226573782336  0.03824883782987323           0.6774075413847114 1.0000   
         H         H         1.0       0.6215584083534206  0.034319578096466304         0.6206078963091863 1.0000   
         H         H         1.0       0.6500631103834824  0.04949113557540518           0.6449220141956907 1.0000   
         C         C         1.0       0.9534013180924195  0.03040662189909144           0.9263653580069815 1.0000   
         C         C         1.0       0.9611325153380407  0.04330659176781237           0.9042641465903625 1.0000   
         H         H         1.0       0.9338889981350543  0.041842703921135156         0.9258365831393359 1.0000   
         H         H         1.0       0.9694300019997786  0.034992924490144454         0.9445399276127285 1.0000   
         H         H         1.0       0.944945715048858   0.03365152868828595           0.8868542592415272 1.0000   
         H         H         1.0       0.9790894215322273  0.029259244905406264         0.9033560097965972 1.0000   
         C         C         1.0       0.003594225767342696          0.9087113679488564 0.5197069771858683 1.0000   
         C         C         1.0       0.5166188108495627  0.881135283383325   0.5225451399399651 1.0000   
         H         H         1.0       0.010908288154186652          0.9344387474168224 0.5264086766466862 1.0000   
         H         H         1.0       0.9939610324823734  0.898556912760448   0.533228668562096  1.0000   
         H         H         1.0       0.5232888420951464  0.860727944155237   0.5146033893922445 1.0000   
         H         H         1.0       0.5194294748709907  0.900210116531009   0.5101822955885885 1.0000   
         C         C         1.0       0.5801612640488191  0.9182454721971115  0.8003192247314961 1.0000   
         C         C         1.0       0.5508500534419072  0.9327817284714726  0.7994673810386655 1.0000   
         H         H         1.0       0.5930078485936433  0.9081071107566973  0.8175164642643846 1.0000   
         H         H         1.0       0.5950139959485269  0.9386105540336921  0.8023157224044636 1.0000   
         H         H         1.0       0.536304265280872   0.9377134661959121  0.7808730659396393 1.0000   
         H         H         1.0       0.5564745080392579  0.956428310761782   0.8095484919665243 1.0000   
         C         C         1.0       0.8645641111363234  0.5490857949654314  0.6520981239188437 1.0000   
         C         C         1.0       0.8759385749810776  0.5303065156189603  0.6339524834098376 1.0000   
         H         H         1.0       0.8770872696634566  0.5457102847700621  0.671292861926416  1.0000   
         H         H         1.0       0.8437261095057788  0.5370778988822011  0.6500182369232259 1.0000   
         H         H         1.0       0.898266292620561   0.5377132441712567  0.6383069556785567 1.0000   
         H         H         1.0       0.867228504027135   0.5389393530800415  0.6149850456866259 1.0000   
         C         C         1.0       0.7037127793790837  0.8101990189868828  0.6667048771198293 1.0000   
         C         C         1.0       0.6937368074063198  0.8130789432222807  0.6386991820978002 1.0000   
         H         H         1.0       0.7113903821031407  0.8342637780758277  0.6747319294911766 1.0000   
         H         H         1.0       0.6871454182407403  0.8027668223106231  0.6740296432376489 1.0000   
         H         H         1.0       0.6906930061003621  0.7875787577680075  0.6300433764055795 1.0000   
         H         H         1.0       0.7118327812379117  0.8254987187094269  0.6351984317207593 1.0000   
         C         C         1.0       0.9483784038360613  0.7684251562371639  0.675947302963215  1.0000   
         C         C         1.0       0.9379190886575783  0.7694400873982804  0.6472262044308407 1.0000   
         H         H         1.0       0.933693008602311   0.779180498811695   0.6839035317135713 1.0000   
         H         H         1.0       0.9475121533993109  0.744321482532744   0.6805170039558364 1.0000   
         H         H         1.0       0.955395091412114   0.762509021433126   0.6406390804578421 1.0000   
         H         H         1.0       0.9352403236769317  0.7952127937201285  0.6426305099168755 1.0000   
         C         C         1.0       0.8505539754100262  0.7481242401487603  0.8151526045989166 1.0000   
         C         C         1.0       0.8611337752171773  0.7831832413261923  0.8178798755022163 1.0000   
         H         H         1.0       0.8352377072928108  0.7437301308869019  0.8249055213204622 1.0000   
         H         H         1.0       0.868089237268919   0.7297682193517795  0.8235038178125212 1.0000   
         H         H         1.0       0.8483664398786713  0.7984227294309146  0.8018208544759754 1.0000   
         H         H         1.0       0.857860546931795   0.7963655732840323  0.8328165597400367 1.0000   
         C         C         1.0       0.6735256487377965  0.5178214884278634  0.881326266076069  1.0000   
         C         C         1.0       0.6653623175199781  0.5416574709863785  0.9001233648161002 1.0000   
         H         H         1.0       0.6917157783102784  0.5254651481300174  0.8763340752721778 1.0000   
         H         H         1.0       0.6553519529882436  0.5176969338360335  0.8626687038225449 1.0000   
         H         H         1.0       0.6760661002739364  0.534772595214664   0.9199781722219438 1.0000   
         H         H         1.0       0.6424240557105468  0.5392093110507679  0.8944681577652129 1.0000   
         C         C         1.0       0.5896730127348155  0.7637064584182242  0.8865638283431694 1.0000   
         C         C         1.0       0.6161273960660103  0.7706671121684332  0.9088883215143257 1.0000   
         H         H         1.0       0.5808432258651278  0.739537946413087   0.8903396268254407 1.0000   
         H         H         1.0       0.5980095263056604  0.7627610354928919  0.8713022999911479 1.0000   
         H         H         1.0       0.6138543679860347  0.7720992746288078  0.9267703172970202 1.0000   
         H         H         1.0       0.625741752924234   0.7940406245547892  0.9064571625720401 1.0000   
         C         C         1.0       0.8142360171243788  0.8102033823856515  0.882184237080881  1.0000   
         C         C         1.0       0.8226744833419133  0.8406702858294094  0.8715728580676435 1.0000   
         H         H         1.0       0.8025034729451601  0.8178812091609878  0.8951345713848972 1.0000   
         H         H         1.0       0.8344785196681886  0.7983252995200358  0.8955628827863344 1.0000   
         H         H         1.0       0.8247408023263314  0.8356745890065037  0.8532911518409095 1.0000   
         H         H         1.0       0.8076762375087378  0.8596646301373975  0.8681447443119275 1.0000   
         C         C         1.0       0.6713553429015504  0.7195306214444734  0.7195171896913555 1.0000   
         C         C         1.0       0.6633849836279967  0.7540150537485986  0.7079527355487927 1.0000   
         H         H         1.0       0.6508933079302933  0.7053761672057424  0.7147207360914947 1.0000   
         H         H         1.0       0.6861309648023508  0.7067903275753544  0.7110240169481599 1.0000   
         H         H         1.0       0.6630376315004716  0.7517139045924809  0.6889124627675364 1.0000   
         H         H         1.0       0.6809112088875009  0.7708100237455237  0.7149979440604385 1.0000   
         C         C         1.0       0.7548838325528249  0.7311124060423372  0.5127401059219647 1.0000   
         C         C         1.0       0.7749738491920105  0.7041744041392602  0.5249225224683224 1.0000   
         H         H         1.0       0.7395973341738514  0.7332764009199267  0.5222744090984525 1.0000   
         H         H         1.0       0.7661127020337024  0.7549067174522646  0.5132197574411191 1.0000   
         H         H         1.0       0.7922232679739513  0.7030907008398355  0.5152006300440101 1.0000   
         H         H         1.0       0.7655686489249004  0.678816511231397   0.5206297075578694 1.0000   
         C         C         1.0       0.7636869682919576  0.5864671801167047  0.754258460151309  1.0000   
         C         C         1.0       0.7864619271741445  0.587377878119355   0.7804767290680453 1.0000   
         H         H         1.0       0.7426497172300957  0.5853097805475596  0.7562087945305614 1.0000   
         H         H         1.0       0.7670419976017092  0.5644885115380743  0.7441554032962836 1.0000   
         H         H         1.0       0.8086885420325963  0.5885742229315716  0.779000418818624  1.0000   
         H         H         1.0       0.7862950683249668  0.5654458588782488  0.7904891087490973 1.0000

