data_0
_chemical_formula_structural 
                                        C6H4C38H24C6H4C38H24C6H4C38H24C6H4C38H24C6H4C38H24C6H4C38H24C6H4C38H24C6H4C38H24C6H4C38H24C6H4C38H24C6H4C38H24C6H4C38H24C6H4C38H24C6H4C38H24C6H4C38H24C6H4C38H24C2H4C2H4C2H4C2H4C2H4C2H4C2H4C2H4C2H4C2H4C2H4C2H4C2H4C2H4C2H4C2H4C2H4C2H4C2H4C2H4C2H4C2H4C2H4C2H4C2H4C2H4C2H4C2H4C2H4C2H4C2H4C2H4C2H4C2H4C2H4C2H4C2H4C2H4C2H4C2H4C2H4C2H4C2H4C2H4C2H4C2H4C2H4C2H4
_chemical_formula_sum                   'C800 H640'
_cell_length_a                          31.883302940868376
_cell_length_b                          31.093309795614605
_cell_length_c                          40.538937694278026
_cell_angle_alpha                       89.82204907098854
_cell_angle_beta                        90.35211460166518
_cell_angle_gamma                       91.07395872966765
_space_group_name_H-M_alt               'P 1'
_space_group_IT_number                  1
loop_
  _space_group_symop_operation_xyz
         'x, y, z' 
loop_
  _atom_site_type_symbol
  _atom_site_label
  _atom_site_symmetry_multiplicity
  _atom_site_fract_x
  _atom_site_fract_y
  _atom_site_fract_z
  _atom_site_occupancy
         C         C         1.0       0.8620966793309237  0.4135961120103676  0.35078822168190077          1.0000   
         C         C         1.0       0.8915521363175751  0.4469304112409182  0.3494600851365541 1.0000   
         C         C         1.0       0.8949552486515115  0.47660436300418335           0.3733307596836409 1.0000   
         C         C         1.0       0.8619429866226661  0.48048455582363475           0.3958673595399784 1.0000   
         C         C         1.0       0.8328657971511199  0.44705819678984293           0.3964503345381105 1.0000   
         C         C         1.0       0.8316644869110958  0.414029913106652   0.37453983362601995          1.0000   
         H         H         1.0       0.9148392359878499  0.4495747682373313  0.3300740406187891 1.0000   
         H         H         1.0       0.919582552496475   0.5030391870624096  0.37144506854725856          1.0000   
         H         H         1.0       0.8059663877607666  0.4470956748802161  0.4124413466901176 1.0000   
         H         H         1.0       0.8077180990840115  0.38944025547472594           0.37536069075111345          1.0000   
         C         C         1.0       0.7851303222913426  0.5374425704785933  0.4042852201129315 1.0000   
         C         C         1.0       0.8137921565120536  0.5353324819900117  0.43080334172044765          1.0000   
         C         C         1.0       0.8047862509392674  0.557947779941437   0.4602362873137484 1.0000   
         C         C         1.0       0.768387529099931   0.5807123300149759  0.4628877006936731 1.0000   
         C         C         1.0       0.7399698806777303  0.581130149491415   0.43699919439096696          1.0000   
         C         C         1.0       0.7484921524505811  0.560227712077625   0.4088477430286365 1.0000   
         C         C         1.0       0.8592925396199789  0.5176755621846157  0.42304132237676545          1.0000   
         C         C         1.0       0.8856144057071232  0.5600004619418181  0.4127503138622136 1.0000   
         C         C         1.0       0.9039548568770203  0.5849819905885306  0.4379325746292577 1.0000   
         C         C         1.0       0.9214522296513658  0.625321369847608   0.4319964235378981 1.0000   
         C         C         1.0       0.9231784199466049  0.6406934674616457  0.4008062478616932 1.0000   
         C         C         1.0       0.9009076405665395  0.6177352206443277  0.37575911676790347          1.0000   
         C         C         1.0       0.8817672085812666  0.5788998605805606  0.382633759173496  1.0000   
         C         C         1.0       0.8577090272783424  0.47442417812044124           0.47913893794235374          1.0000   
         C         C         1.0       0.877533418264727   0.45234095224795523           0.5038743841862856 1.0000   
         C         C         1.0       0.9197438954946459  0.43841874143424603           0.49965066248958906          1.0000   
         C         C         1.0       0.942354116138522   0.4563668053320892  0.473741849082264  1.0000   
         C         C         1.0       0.9230819710197792  0.48283537663984355           0.45223639025621376          1.0000   
         C         C         1.0       0.8804497046989787  0.48986411608208236           0.4525551881910252 1.0000   
         C         C         1.0       0.9394284882919904  0.40258665771862    0.5241058086204062 1.0000   
         C         C         1.0       0.9089788167579301  0.4076460641826875  0.6303940539863938 1.0000   
         C         C         1.0       0.9177335475304776  0.3697861804979624  0.6161491585488702 1.0000   
         C         C         1.0       0.9267444162663868  0.3672388479304947  0.5825896099536045 1.0000   
         C         C         1.0       0.9247004920108103  0.4036981949514816  0.5621819854306421 1.0000   
         C         C         1.0       0.917575002839802   0.44206870565416584           0.5787934626761572 1.0000   
         C         C         1.0       0.9094425223641273  0.4451999981706129  0.6112556547984695 1.0000   
         C         C         1.0       0.9887036434463616  0.40521545376289425           0.5312099633078716 1.0000   
         C         C         1.0       0.007367876285534258          0.44295027596264336          0.5387434268325977 1.0000   
         C         C         1.0       0.051012014494883795          0.44719020117209146          0.541742960650982  1.0000   
         C         C         1.0       0.07660205122776546           0.41284602054324343          0.5417046297594051 1.0000   
         C         C         1.0       0.056961981500759054          0.3733362593971177 0.5350665940287715 1.0000   
         C         C         1.0       0.013437195032866889          0.3696587609208789 0.532536315665986  1.0000   
         C         C         1.0       0.9460288301956222  0.34109243485659263           0.47790664847771597          1.0000   
         C         C         1.0       0.9285445099266592  0.3066037938856638  0.46203917639670694          1.0000   
         C         C         1.0       0.8894492450032683  0.29026080353286215           0.47106914885825296          1.0000   
         C         C         1.0       0.8680213288177306  0.3085484055558083  0.49697516311481743          1.0000   
         C         C         1.0       0.8864466867401578  0.34300218554160644           0.513104449736935  1.0000   
         C         C         1.0       0.9245090787187487  0.3599312376324886  0.504379815957495  1.0000   
         H         H         1.0       0.7885668732219038  0.5246309654868592  0.3795345248648901 1.0000   
         H         H         1.0       0.8286735142609458  0.5642044988224981  0.4781496667248902 1.0000   
         H         H         1.0       0.76330892399732    0.6034422387986419  0.4834500578316848 1.0000   
         H         H         1.0       0.7256073067693177  0.5569728609871675  0.3879704015700909 1.0000   
         H         H         1.0       0.8998361170655957  0.5746126637964739  0.46306824062768903          1.0000   
         H         H         1.0       0.9321307719255566  0.6448629497309175  0.45271691301944333          1.0000   
         H         H         1.0       0.9021581964482105  0.6304564483394527  0.35053979539815716          1.0000   
         H         H         1.0       0.8632196991437419  0.5625684985966194  0.36358817538251226          1.0000   
         H         H         1.0       0.8256247328375297  0.47892172315418924           0.48373056252686647          1.0000   
         H         H         1.0       0.8585618895718846  0.4380306035188211  0.5238330518982932 1.0000   
         H         H         1.0       0.9745704463239437  0.4505771598306514  0.4705777270486371 1.0000   
         H         H         1.0       0.9431285989634782  0.49475263916088813           0.4322145048396958 1.0000   
         H         H         1.0       0.9119952066988466  0.3388460786072659  0.6279428360319237 1.0000   
         H         H         1.0       0.932430581432889   0.3358129288013144  0.5718169713891583 1.0000   
         H         H         1.0       0.9197190408836554  0.47096073841407027           0.5654498568063681 1.0000   
         H         H         1.0       0.9047879055848934  0.4758690739898209  0.6234651037137624 1.0000   
         H         H         1.0       0.9916013075542904  0.4711078639144414  0.5374633180854576 1.0000   
         H         H         1.0       0.06653462307149871           0.47882011230682064          0.5458032845183935 1.0000   
         H         H         1.0       0.0761064614434789  0.34511049722139375           0.5380847924304134 1.0000   
         H         H         1.0       0.9979476981068232  0.33756366692843837           0.5324148484963817 1.0000   
         H         H         1.0       0.9764496040013112  0.35268154114445    0.47170543584406205          1.0000   
         H         H         1.0       0.9468767686099567  0.29445991845677216           0.4416664154042419 1.0000   
         H         H         1.0       0.8370236346361826  0.29524299720618835           0.5035489316051825 1.0000   
         H         H         1.0       0.8652913738516352  0.35692470525400316           0.5315029982515198 1.0000   
         C         C         1.0       0.23438543248153035           0.4535983768659997 0.6812938617097468 1.0000   
         C         C         1.0       0.2149722208069142  0.4879874958853988  0.6975284285887419 1.0000   
         C         C         1.0       0.23847076844043727           0.5241066956748686 0.7048411639062676 1.0000   
         C         C         1.0       0.27787872931978214           0.5300493691145335 0.6944001528722263 1.0000   
         C         C         1.0       0.29672505447835024           0.4948381874166087 0.6800106745581481 1.0000   
         C         C         1.0       0.2758732919385679  0.45617574032422553           0.6753792955354614 1.0000   
         H         H         1.0       0.18320472555345121           0.48694092624918195          0.7048390983915355 1.0000   
         H         H         1.0       0.22375671297122957           0.5534869389505084 0.7140095831342683 1.0000   
         H         H         1.0       0.32616720996103404           0.4955042609101954 0.6692125862720976 1.0000   
         H         H         1.0       0.2942422625319111  0.43349376823481345           0.6617347005536337 1.0000   
         C         C         1.0       0.38006621101282617           0.5489508067265059 0.7000654975117597 1.0000   
         C         C         1.0       0.3515577538719013  0.5773756343343192  0.6880763066097287 1.0000   
         C         C         1.0       0.36780462912694645           0.6094369080112064 0.6663740328550374 1.0000   
         C         C         1.0       0.40827450170529495           0.611873064724967  0.6584705008879723 1.0000   
         C         C         1.0       0.43645907995487276           0.5840532620957104 0.6714073531830351 1.0000   
         C         C         1.0       0.4222004767677507  0.5518818707345586  0.6915274693428985 1.0000   
         C         C         1.0       0.3018136396683567  0.574561405764266   0.6942712750608346 1.0000   
         C         C         1.0       0.29833748728075055           0.5987911457943582 0.7275905421044562 1.0000   
         C         C         1.0       0.30314487209076224           0.6440467066645935 0.7298133107480252 1.0000   
         C         C         1.0       0.29721051244020497           0.6680277616614029 0.7588641210792366 1.0000   
         C         C         1.0       0.2884746761167678  0.6448974095460082  0.7864017527846667 1.0000   
         C         C         1.0       0.28704112461328085           0.6011666254324091 0.786066799129487  1.0000   
         C         C         1.0       0.2927513673382502  0.5782789403720424  0.7581122772284841 1.0000   
         C         C         1.0       0.2830954973941525  0.5812620828030447  0.6337054938229831 1.0000   
         C         C         1.0       0.254595569326554   0.5888390026834825  0.6090116109953727 1.0000   
         C         C         1.0       0.2210569618873076  0.6151694903696631  0.6118968287221878 1.0000   
         C         C         1.0       0.21609945097692815           0.6342770568907024 0.6424528872959965 1.0000   
         C         C         1.0       0.24188800519380482           0.6252608566884827 0.669254875039303  1.0000   
         C         C         1.0       0.275524016014094   0.5972981348905453  0.6657068099126514 1.0000   
         C         C         1.0       0.1875267530444904  0.6208430996397105  0.5821656209464093 1.0000   
         C         C         1.0       0.2816768039898124  0.7102483842388976  0.5465236827021497 1.0000   
         C         C         1.0       0.27839844512710177           0.6696853325657216 0.5328997776678366 1.0000   
         C         C         1.0       0.24356320857482827           0.6439186261456248 0.5379871274089758 1.0000   
         C         C         1.0       0.21313052220282924           0.654224669679617  0.5617668950885586 1.0000   
         C         C         1.0       0.21704852819828624           0.6970510706593084 0.5730935493508432 1.0000   
         C         C         1.0       0.25016073023632257           0.7257574854368243 0.5648748073317371 1.0000   
         C         C         1.0       0.14193790537063222           0.6343941620085282 0.5943731402783615 1.0000   
         C         C         1.0       0.12594017599189045           0.6198992127942953 0.6237368223916746 1.0000   
         C         C         1.0       0.09178532079499431           0.6377104365049268 0.6362132583046367 1.0000   
         C         C         1.0       0.06977228300426387           0.6669962800782442 0.6182015101382824 1.0000   
         C         C         1.0       0.08201102538832823           0.678199240194616  0.5864071130198756 1.0000   
         C         C         1.0       0.11840507347891098           0.663004076821628  0.5747591159457979 1.0000   
         C         C         1.0       0.1608379753315861  0.5743168725354746  0.5327014759497589 1.0000   
         C         C         1.0       0.15103100604235195           0.5338710319215477 0.5179482795780035 1.0000   
         C         C         1.0       0.15293014668934193           0.496882016501823  0.5380666981672192 1.0000   
         C         C         1.0       0.1590875879449682  0.5001646359785408  0.5712517467706726 1.0000   
         C         C         1.0       0.1696792451752712  0.5385086232403853  0.5850831489724907 1.0000   
         C         C         1.0       0.17400132407299507           0.575932666148516  0.5654131872139068 1.0000   
         H         H         1.0       0.3686176773501825  0.519753288174951   0.7141659077280855 1.0000   
         H         H         1.0       0.3485823960297096  0.6310812402584939  0.6526548251009121 1.0000   
         H         H         1.0       0.4211316883912523  0.6370768704597028  0.6409329835037625 1.0000   
         H         H         1.0       0.44495835153144214           0.534625713050844  0.7026652795637574 1.0000   
         H         H         1.0       0.30629553611637444           0.6638413610687417 0.7077612701334258 1.0000   
         H         H         1.0       0.2995166212811691  0.701433380836337   0.7564679670577861 1.0000   
         H         H         1.0       0.27981374897977934           0.587336819313691  0.8098789801757934 1.0000   
         H         H         1.0       0.29373169339319927           0.5427900580249787 0.7602975270702645 1.0000   
         H         H         1.0       0.30804694925013887           0.5581639260175083 0.6296627730795976 1.0000   
         H         H         1.0       0.2646174850892508  0.5773347552184008  0.5854467749899215 1.0000   
         H         H         1.0       0.1930362667207631  0.6608105383128873  0.6476776337159681 1.0000   
         H         H         1.0       0.2344609067495893  0.6385300119743478  0.6929733689137121 1.0000   
         H         H         1.0       0.30321537022580125           0.6585922555957775 0.516876299635952  1.0000   
         H         H         1.0       0.24395495378780122           0.6126544160158947 0.5268895062402829 1.0000   
         H         H         1.0       0.19443662256739783           0.7057723685358066 0.5913928078136985 1.0000   
         H         H         1.0       0.25271621224442714           0.7568320339995062 0.5776264701561366 1.0000   
         H         H         1.0       0.14015961485160117           0.5975943587461744 0.6387160206351129 1.0000   
         H         H         1.0       0.08303024731137298           0.6290205082330791 0.6602309174943152 1.0000   
         H         H         1.0       0.07184621699707414           0.707075149187421  0.5710864534661844 1.0000   
         H         H         1.0       0.13030709043679253           0.6710403308402548 0.5518847274515464 1.0000   
         H         H         1.0       0.16529581561273426           0.6046566324396578 0.5173002828557651 1.0000   
         H         H         1.0       0.14820921140315624           0.5304552394834269 0.49200589021225766          1.0000   
         H         H         1.0       0.15250444014262152           0.47442599107046   0.5882736909239361 1.0000   
         H         H         1.0       0.17409215201043596           0.5430029961644994 0.6117588834803609 1.0000   
         C         C         1.0       0.4478570003705873  0.7778657098881351  0.4038426599351862 1.0000   
         C         C         1.0       0.4692982744049794  0.741541362401861   0.410322863461081  1.0000   
         C         C         1.0       0.509649574419733   0.7438868641890037  0.4233451576419908 1.0000   
         C         C         1.0       0.5324173811098242  0.7822487465062228  0.4251199185377879 1.0000   
         C         C         1.0       0.5101787613022399  0.8196044976210821  0.4195000770351699 1.0000   
         C         C         1.0       0.46873194049261585           0.8163831476406324 0.40838014560718916          1.0000   
         H         H         1.0       0.45573452118162794           0.7089959895475898 0.4087845204225429 1.0000   
         H         H         1.0       0.5266431315926339  0.7159775439378763  0.4313885728739524 1.0000   
         H         H         1.0       0.5237998727891526  0.85233669164981    0.4221849711199306 1.0000   
         H         H         1.0       0.4513410211718677  0.8453783984067843  0.40449223017906344          1.0000   
         C         C         1.0       0.6095396432195995  0.8338489915505067  0.40316983431758885          1.0000   
         C         C         1.0       0.6032154488162828  0.822175857650215   0.4360657175742486 1.0000   
         C         C         1.0       0.627773631201905   0.8431444359892102  0.45949761993078064          1.0000   
         C         C         1.0       0.6526561946918676  0.8766813210901153  0.45160927680545915          1.0000   
         C         C         1.0       0.656492789212243   0.8887162209426228  0.4197225936724657 1.0000   
         C         C         1.0       0.6362062240456182  0.8675701563391143  0.3957992129971433 1.0000   
         C         C         1.0       0.5734176631503692  0.7832510185169229  0.4456722542567227 1.0000   
         C         C         1.0       0.6085347018866514  0.7463266733251755  0.4407267179201089 1.0000   
         C         C         1.0       0.6376467401231314  0.7408500138657026  0.4652615296738835 1.0000   
         C         C         1.0       0.6683693146483267  0.7110454069332764  0.4633124079780063 1.0000   
         C         C         1.0       0.6723608705884202  0.6862796610834051  0.43620857616770065          1.0000   
         C         C         1.0       0.6437464705402862  0.6921563721860342  0.4115031750181648 1.0000   
         C         C         1.0       0.6121501385691243  0.7209178763805543  0.4132583278992005 1.0000   
         C         C         1.0       0.5387629203251705  0.8193862935371293  0.4968783507127821 1.0000   
         C         C         1.0       0.5283405085951279  0.8187878251838452  0.5295696685076189 1.0000   
         C         C         1.0       0.5299716238554344  0.7812491617133104  0.5468349201628221 1.0000   
         C         C         1.0       0.5384788031196603  0.7433689331717903  0.5307404206442232 1.0000   
         C         C         1.0       0.5496775279905379  0.7440929773952327  0.49841261844003476          1.0000   
         C         C         1.0       0.5540593800306628  0.7832541806227289  0.48258941492811674          1.0000   
         C         C         1.0       0.5238284054605551  0.7801791509253668  0.5864143131395847 1.0000   
         C         C         1.0       0.5707942036387471  0.8959600120819236  0.6383814888528957 1.0000   
         C         C         1.0       0.5346567012271475  0.8757432588503714  0.647992167898207  1.0000   
         C         C         1.0       0.5185701744566659  0.8401481693610816  0.6313102502471284 1.0000   
         C         C         1.0       0.5395323842103565  0.824193524901835   0.6043213329579212 1.0000   
         C         C         1.0       0.5773501445688058  0.8457410978834836  0.5959566436740098 1.0000   
         C         C         1.0       0.5924078182048137  0.8801404077394356  0.6127338872849144 1.0000   
         C         C         1.0       0.5554831970678051  0.7474477653952173  0.6048903719969403 1.0000   
         C         C         1.0       0.5967254275688318  0.74592558717932    0.5956725507000298 1.0000   
         C         C         1.0       0.6240647753845523  0.7190799940919351  0.6110752786858792 1.0000   
         C         C         1.0       0.6098645705474373  0.6914285702843703  0.6362415522233864 1.0000   
         C         C         1.0       0.5688314779977981  0.694936393267722   0.6456390555146846 1.0000   
         C         C         1.0       0.5409564071710802  0.7250932100531022  0.6326106495610508 1.0000   
         C         C         1.0       0.4600419999916316  0.727696171570281   0.5871415252545938 1.0000   
         C         C         1.0       0.4177329560263701  0.7182329418041595  0.5855278684521483 1.0000   
         C         C         1.0       0.3907084493452006  0.7513804675440409  0.5818634559934713 1.0000   
         C         C         1.0       0.4036157015016678  0.793689858685469   0.5829560077188309 1.0000   
         C         C         1.0       0.44665263778314224           0.8019412064307806 0.5843965913708147 1.0000   
         C         C         1.0       0.47509642295663174           0.7686778494475628 0.5875559528116846 1.0000   
         H         H         1.0       0.5900025626485675  0.817593931614028   0.3850412639487545 1.0000   
         H         H         1.0       0.624998450077392   0.834000331360143   0.4861988007190899 1.0000   
         H         H         1.0       0.6686649506719683  0.8957415022355886  0.4706417354055298 1.0000   
         H         H         1.0       0.6309142367361847  0.882119201663387   0.37073682313953976          1.0000   
         H         H         1.0       0.6375932242587872  0.7607765582901223  0.48709151786343313          1.0000   
         H         H         1.0       0.6878399459470442  0.70674377237824    0.48530349849290877          1.0000   
         H         H         1.0       0.6460373882165331  0.6734353198431118  0.38884702115105535          1.0000   
         H         H         1.0       0.5904500642580472  0.7206149000611122  0.3932038932546076 1.0000   
         H         H         1.0       0.5394710291924325  0.8505197843950594  0.4830588223382873 1.0000   
         H         H         1.0       0.5171409483191443  0.8480334239845512  0.5420350019397321 1.0000   
         H         H         1.0       0.5380292248879596  0.712543021863022   0.5433225044148994 1.0000   
         H         H         1.0       0.5594659312062688  0.7137338402525181  0.48914989272076753          1.0000   
         H         H         1.0       0.5194358370715692  0.8871601174199595  0.6705606578162706 1.0000   
         H         H         1.0       0.49017211808068145           0.823581537766278  0.6398671594122425 1.0000   
         H         H         1.0       0.5920793899355298  0.8404204167182225  0.5710736610241641 1.0000   
         H         H         1.0       0.6219836049973474  0.8971885232693497  0.6069873459681964 1.0000   
         H         H         1.0       0.6075479033700085  0.7680228991460736  0.5770570556616661 1.0000   
         H         H         1.0       0.6575395029202202  0.7234319585096376  0.607481232511612  1.0000   
         H         H         1.0       0.5616134500685026  0.6710665910984913  0.6649617826416545 1.0000   
         H         H         1.0       0.5094444818053618  0.726444082283014   0.6432189539304932 1.0000   
         H         H         1.0       0.48023237769157545           0.700405880632966  0.5903797195471491 1.0000   
         H         H         1.0       0.4069068994707664  0.6856368876763722  0.5895719654018572 1.0000   
         H         H         1.0       0.38060227669941904           0.8174508894560379 0.5790375940418427 1.0000   
         H         H         1.0       0.45703913223751913           0.8356759383640976 0.5820518906948087 1.0000   
         C         C         1.0       0.5123552324232027  0.5144661398524152  0.6523278497416871 1.0000   
         C         C         1.0       0.5304352466809593  0.5087684187422036  0.6823309657551362 1.0000   
         C         C         1.0       0.5396110195442182  0.4681182938922572  0.6935433778087291 1.0000   
         C         C         1.0       0.5362134489916269  0.43148780455877606           0.6746347405376201 1.0000   
         C         C         1.0       0.5198222523495298  0.43958228851477016           0.6423525142863011 1.0000   
         C         C         1.0       0.5067024889383522  0.4792654742392947  0.6314408923630984 1.0000   
         H         H         1.0       0.5386216395022936  0.5383905283921867  0.6960568940844921 1.0000   
         H         H         1.0       0.5518583461512896  0.4637541760299399  0.7188316159239411 1.0000   
         H         H         1.0       0.5189916887552055  0.4130167015365944  0.6252716329296738 1.0000   
         H         H         1.0       0.4922416938748487  0.48093830694262396           0.6061069168302832 1.0000   
         C         C         1.0       0.4810005486050028  0.35186095426011305           0.6602129750733837 1.0000   
         C         C         1.0       0.5229115767072485  0.34710184823990303           0.6687123392570619 1.0000   
         C         C         1.0       0.5396903548409426  0.3058483392043209  0.6683409490142166 1.0000   
         C         C         1.0       0.5132871526166681  0.2707187096006521  0.664352734042943  1.0000   
         C         C         1.0       0.4716305925708736  0.27614447107756307           0.6580512639641829 1.0000   
         C         C         1.0       0.45577151089697043           0.31535136739756015          0.6555150276078132 1.0000   
         C         C         1.0       0.5522264036091789  0.38518790023898897           0.6837562756251958 1.0000   
         C         C         1.0       0.5494183958469441  0.3744914463531776  0.7218593091163414 1.0000   
         C         C         1.0       0.5788569005595608  0.3507284043169548  0.7384568211314185 1.0000   
         C         C         1.0       0.5733212047415805  0.33503294623790664           0.7698959894394773 1.0000   
         C         C         1.0       0.5377099764169029  0.34570049947569687           0.7864836243010209 1.0000   
         C         C         1.0       0.5081599346602302  0.36969058382746717           0.7713721581938665 1.0000   
         C         C         1.0       0.5136411297346728  0.3857789431916015  0.7400136373419642 1.0000   
         C         C         1.0       0.6076327854497653  0.3761878513583684  0.6362553346989158 1.0000   
         C         C         1.0       0.6451601084189903  0.39148113262387746           0.6218054091665307 1.0000   
         C         C         1.0       0.6691465137716475  0.42344537207688565           0.6360374301874914 1.0000   
         C         C         1.0       0.6604809152692487  0.43267785494170224           0.6686782213630261 1.0000   
         C         C         1.0       0.6273342055483696  0.4129968420742405  0.6855522484490814 1.0000   
         C         C         1.0       0.5985140328378042  0.3889488319281498  0.668547160305588  1.0000   
         C         C         1.0       0.7045465187670867  0.4530359161745007  0.6154625971256201 1.0000   
         C         C         1.0       0.714297696041849   0.4519079494240258  0.5086517888976794 1.0000   
         C         C         1.0       0.7477233582341435  0.46121365267468994           0.5283206512309605 1.0000   
         C         C         1.0       0.7440104875910862  0.46222119537641476           0.5606447848347532 1.0000   
         C         C         1.0       0.7066136030804382  0.4508861797717907  0.5766981918762544 1.0000   
         C         C         1.0       0.6710625526878407  0.4453041741182412  0.5573558105443245 1.0000   
         C         C         1.0       0.6750238261015756  0.44718181814053537           0.5234643927390324 1.0000   
         C         C         1.0       0.7450125233727127  0.43774415351948165           0.6354900353404599 1.0000   
         C         C         1.0       0.7587270387757776  0.4541247633800293  0.6656906075190444 1.0000   
         C         C         1.0       0.7964061506140222  0.44049230799345934           0.6783914236799624 1.0000   
         C         C         1.0       0.8168976088521758  0.40637184550953703           0.6634050169788374 1.0000   
         C         C         1.0       0.7999115835131897  0.388108318058905   0.6351100464195945 1.0000   
         C         C         1.0       0.7641520301243789  0.4015441333888881  0.6222288298066465 1.0000   
         C         C         1.0       0.7247329152217193  0.5340144855382685  0.6198330652783426 1.0000   
         C         C         1.0       0.7154866517064039  0.5760826364163854  0.6195751202477598 1.0000   
         C         C         1.0       0.6753919896728924  0.5902013172426464  0.6196511491389326 1.0000   
         C         C         1.0       0.6420902362685137  0.558051724784037   0.6188980789178151 1.0000   
         C         C         1.0       0.6520843915031024  0.5159047981351603  0.6177555810686726 1.0000   
         C         C         1.0       0.6931307980829569  0.5026931402468383  0.6195094038127513 1.0000   
         H         H         1.0       0.465464543374549   0.3833932552609255  0.6614781091566853 1.0000   
         H         H         1.0       0.5725359174855236  0.30154713400683236           0.6750718265752942 1.0000   
         H         H         1.0       0.5260945524711141  0.2390024028960518  0.6644078377757752 1.0000   
         H         H         1.0       0.42085410908958687           0.31804499429784155          0.652409027768908  1.0000   
         H         H         1.0       0.6040918073680632  0.33678547985466856           0.7255829645301731 1.0000   
         H         H         1.0       0.5984025055486661  0.319117732402025   0.782169194743241  1.0000   
         H         H         1.0       0.4790480365159612  0.3749504367165487  0.7838972513890656 1.0000   
         H         H         1.0       0.48867756904566845           0.4038721904586285 0.7289495615474495 1.0000   
         H         H         1.0       0.5847167946870953  0.3553983461090595  0.6232968078576779 1.0000   
         H         H         1.0       0.6479326099416298  0.3802071783853497  0.597879815914716  1.0000   
         H         H         1.0       0.6762348037904629  0.45709459526228435           0.681447346816343  1.0000   
         H         H         1.0       0.6209125830057204  0.42703438753897477           0.7095514964720103 1.0000   
         H         H         1.0       0.7786102384274672  0.4671828041653136  0.5184868651589796 1.0000   
         H         H         1.0       0.7722374598760741  0.4714222492923686  0.5772799706395775 1.0000   
         H         H         1.0       0.640177714319007   0.44770819849160437           0.5691588323044082 1.0000   
         H         H         1.0       0.6454288765343087  0.44541164431162145           0.5082214598469331 1.0000   
         H         H         1.0       0.7451975233258222  0.4809052439943096  0.6789137103481651 1.0000   
         H         H         1.0       0.8098792053266416  0.45542702954593517           0.6998925884769434 1.0000   
         H         H         1.0       0.8162515587959767  0.35993887320679    0.625294523446064  1.0000   
         H         H         1.0       0.7525551549325888  0.38553390593718867           0.6001200607373277 1.0000   
         H         H         1.0       0.7575178900662259  0.5255437570582066  0.618703766167375  1.0000   
         H         H         1.0       0.7390704454008052  0.6012680713395561  0.6175641622479202 1.0000   
         H         H         1.0       0.6084963443026755  0.567341677854498   0.6187580690712923 1.0000   
         H         H         1.0       0.6262938116177457  0.49263858856943393           0.6196285916425264 1.0000   
         C         C         1.0       0.7384813498265541  0.2385389259147927  0.3487962159260171 1.0000   
         C         C         1.0       0.7096014111459459  0.205084495204153   0.34915114609482345          1.0000   
         C         C         1.0       0.7095993643872319  0.17519561022805225           0.3739516992688328 1.0000   
         C         C         1.0       0.7426027480095513  0.1746918681311258  0.3963764956655236 1.0000   
         C         C         1.0       0.7686799478328225  0.21306693151891035           0.3962909820906036 1.0000   
         C         C         1.0       0.7670418562619039  0.2442880590972234  0.3730437978757213 1.0000   
         H         H         1.0       0.6878951051511473  0.19893401965623633           0.3306189359926679 1.0000   
         H         H         1.0       0.6871780394360247  0.1498017876614858  0.3750434351562404 1.0000   
         H         H         1.0       0.79776944077687    0.2181702104344759  0.41225339165486496          1.0000   
         H         H         1.0       0.7842390201955641  0.2753601311542253  0.3758853039591293 1.0000   
         C         C         1.0       0.8162475401794498  0.11863957435936785           0.3983953027612898 1.0000   
         C         C         1.0       0.7921271990834244  0.1202510451766787  0.42650248371569305          1.0000   
         C         C         1.0       0.8073082853148018  0.0988555572013233  0.4544369849736376 1.0000   
         C         C         1.0       0.8450709906462989  0.07776559204501236           0.4543682380620692 1.0000   
         C         C         1.0       0.8682616509802865  0.07662029258040644           0.4265441503151981 1.0000   
         C         C         1.0       0.8537193069231289  0.09659909737699908           0.39824640545178125          1.0000   
         C         C         1.0       0.7455331830824984  0.13761014653470435           0.4240221951933969 1.0000   
         C         C         1.0       0.7194971367464041  0.09465474288015585           0.4205734811706402 1.0000   
         C         C         1.0       0.7059780546014323  0.07109592558983345           0.44763035539519574          1.0000   
         C         C         1.0       0.6888004765550607  0.030521254057292675         0.4457396134045202 1.0000   
         C         C         1.0       0.680712587960002   0.013312345119281586         0.4146998225046201 1.0000   
         C         C         1.0       0.694281707959358   0.034110848221232885         0.38817422312265903          1.0000   
         C         C         1.0       0.7163666121420197  0.0731276619542816  0.39124287104801886          1.0000   
         C         C         1.0       0.7554723115370545  0.18114143237587638           0.4780282037510369 1.0000   
         C         C         1.0       0.7399866034149245  0.20643653764229525           0.5033723770264216 1.0000   
         C         C         1.0       0.6980459892855415  0.21700650279914305           0.5032180724950152 1.0000   
         C         C         1.0       0.6727991725338691  0.20279929342238381           0.4782585926040283 1.0000   
         C         C         1.0       0.6867147240468309  0.17596498490597473           0.4537938446087316 1.0000   
         C         C         1.0       0.7287166624030278  0.16417456427778454           0.4539671165265972 1.0000   
         C         C         1.0       0.68073194766356    0.25227977768114007           0.5264666699721393 1.0000   
         C         C         1.0       0.712599489727428   0.2388782329084763  0.6320253034163557 1.0000   
         C         C         1.0       0.7027737944901096  0.2782884754900484  0.6188951037306493 1.0000   
         C         C         1.0       0.6951061356670744  0.28322193440725163           0.5855227302963246 1.0000   
         C         C         1.0       0.6954245277944808  0.24926966391011485           0.5642738833323998 1.0000   
         C         C         1.0       0.7080088481318276  0.21087656396031237           0.5771305086691098 1.0000   
         C         C         1.0       0.7173574573772235  0.20453719759744596           0.6097453099467791 1.0000   
         C         C         1.0       0.6327767206924504  0.24996947856588256           0.5341969100773298 1.0000   
         C         C         1.0       0.6114414121628543  0.20989701581885487           0.5385647484251028 1.0000   
         C         C         1.0       0.5696634513843666  0.20749833926743538           0.5441929253873432 1.0000   
         C         C         1.0       0.5472072788014708  0.24367267371984172           0.5462904914404447 1.0000   
         C         C         1.0       0.5669079952027738  0.2830165946586607  0.5441165616511393 1.0000   
         C         C         1.0       0.6097923070401748  0.2873024541540282  0.540224881848178  1.0000   
         C         C         1.0       0.6725198875106496  0.31270517171623496           0.4848829856987717 1.0000   
         C         C         1.0       0.686268890496823   0.35055543704800696           0.4687355356405786 1.0000   
         C         C         1.0       0.7249515702334045  0.3679014469941531  0.4747754704540028 1.0000   
         C         C         1.0       0.7491218166173821  0.34954551541405726           0.4984823250108689 1.0000   
         C         C         1.0       0.7355866970643496  0.3133219124285862  0.5151857690955828 1.0000   
         C         C         1.0       0.6972106371066976  0.2943351030169292  0.5091683428713378 1.0000   
         H         H         1.0       0.8040715203404931  0.13449182531720502           0.377286463321273  1.0000   
         H         H         1.0       0.7885901980291489  0.09788605995361013           0.4767896691584997 1.0000   
         H         H         1.0       0.8579063897497946  0.059710663455855045         0.4753283148444095 1.0000   
         H         H         1.0       0.8710967312641336  0.09616774502322299           0.3753201741419985 1.0000   
         H         H         1.0       0.7117075357186399  0.08183121861432045           0.4732244796359211 1.0000   
         H         H         1.0       0.6789940890101138  0.016518684258423066         0.46891928079980316          1.0000   
         H         H         1.0       0.6926720654416799  0.018461648550272953         0.36383000427973317          1.0000   
         H         H         1.0       0.7364655964463085  0.0841722354305196  0.3708366396355485 1.0000   
         H         H         1.0       0.7901357264254463  0.17412570838367192           0.47794662465571774          1.0000   
         H         H         1.0       0.7617788778146467  0.21572350280022348           0.5225592097897328 1.0000   
         H         H         1.0       0.6427613335699839  0.216185115023363   0.4727891350456406 1.0000   
         H         H         1.0       0.6633690872702513  0.16995938387044685           0.43274073043666544          1.0000   
         H         H         1.0       0.6986342914115123  0.30747110544145795           0.6329799964058183 1.0000   
         H         H         1.0       0.6858072839512971  0.31371492159636427           0.5750746973932486 1.0000   
         H         H         1.0       0.7126195994077353  0.18326837069645152           0.5614699618224723 1.0000   
         H         H         1.0       0.7310797804934002  0.17542419017190924           0.6175903624091922 1.0000   
         H         H         1.0       0.6276901341433462  0.182407471028012   0.5390930820870391 1.0000   
         H         H         1.0       0.5544381194278087  0.177509617569199   0.5514071675703354 1.0000   
         H         H         1.0       0.5508903866966107  0.3142537932514488  0.5472805462073284 1.0000   
         H         H         1.0       0.6247149744910558  0.3187470191308786  0.5396853671518551 1.0000   
         H         H         1.0       0.6461511410857145  0.29628597313498684           0.47429184805235614          1.0000   
         H         H         1.0       0.6695009666784324  0.3632586436193695  0.44795492039838314          1.0000   
         H         H         1.0       0.7800685724371518  0.3622260264906611  0.5049832809770033 1.0000   
         H         H         1.0       0.7584565635119047  0.3020022960707741  0.5318658304563845 1.0000   
         C         C         1.0       0.3900368441122909  0.19562891836210416           0.695684026109646  1.0000   
         C         C         1.0       0.404524154403555   0.16031082271857652           0.711089780408149  1.0000   
         C         C         1.0       0.3784980245745948  0.12333176542186883           0.7118238899553098 1.0000   
         C         C         1.0       0.3384391388623684  0.12039499586164086           0.7002544886469483 1.0000   
         C         C         1.0       0.3226328124149664  0.15822736320657932           0.6872043355646957 1.0000   
         C         C         1.0       0.3481794604230346  0.19566320612216329           0.6858449743357793 1.0000   
         H         H         1.0       0.4383434388693897  0.15701872750095347           0.719163824246187  1.0000   
         H         H         1.0       0.39606030834132244           0.09721407920942869          0.720122502673578  1.0000   
         H         H         1.0       0.29264910457515264           0.15985380383765263          0.6753493511464174 1.0000   
         H         H         1.0       0.33973847820952247           0.22670429741269527          0.6733378366510211 1.0000   
         C         C         1.0       0.23361731765844237           0.10261922158144293          0.7019934283183582 1.0000   
         C         C         1.0       0.2633120625355348  0.07782598797407529           0.6870292712773329 1.0000   
         C         C         1.0       0.24531946805021979           0.047822543384849  0.664487156024027  1.0000   
         C         C         1.0       0.20357879382919083           0.04560486408553897          0.6564731640515242 1.0000   
         C         C         1.0       0.17364905058188318           0.06869377330055945          0.6764835870641425 1.0000   
         C         C         1.0       0.19101141040625538           0.09937617378422041          0.6972679508666941 1.0000   
         C         C         1.0       0.31241323436948165           0.07669061394410864          0.6960000838967818 1.0000   
         C         C         1.0       0.3114095381506083  0.04966938483698614           0.728856216518128  1.0000   
         C         C         1.0       0.30214716150451315           0.005390324028338166         0.7260802379046506 1.0000   
         C         C         1.0       0.29862743245664336           0.982169330200446  0.7549389803142692 1.0000   
         C         C         1.0       0.30358297143486385           0.9989331853491775 0.7856815725647662 1.0000   
         C         C         1.0       0.314617638406404   0.04166677125168774           0.7887779162755556 1.0000   
         C         C         1.0       0.31614843736375736           0.06663311692300945          0.7601519508846463 1.0000   
         C         C         1.0       0.3351011114162369  0.07576457824266457           0.637558266896792  1.0000   
         C         C         1.0       0.3618957495881037  0.06892158386724619           0.613108307987606  1.0000   
         C         C         1.0       0.39668916798297515           0.044251798977785375         0.618622964584603  1.0000   
         C         C         1.0       0.3994360325328014  0.020715770992634993         0.6478238255416666 1.0000   
         C         C         1.0       0.3704051686584945  0.026463413149496042         0.6726270203414206 1.0000   
         C         C         1.0       0.33995105042332213           0.05652067423911379          0.6684851916783623 1.0000   
         C         C         1.0       0.4304890689306525  0.039896759203962726         0.5898128440071941 1.0000   
         C         C         1.0       0.34022247969830893           0.949105882497819  0.5471170405518632 1.0000   
         C         C         1.0       0.3423162621290547  0.9914422683704791  0.5342849932614195 1.0000   
         C         C         1.0       0.37525628004599804           0.018946080563481387         0.5445294692406389 1.0000   
         C         C         1.0       0.40451039604708733           0.005461543991686302         0.5680196590540123 1.0000   
         C         C         1.0       0.4042527351833434  0.9626083482336946  0.5778754683372594 1.0000   
         C         C         1.0       0.37239390988963134           0.9358846855277092 0.5679080261156009 1.0000   
         C         C         1.0       0.47527083892603006           0.02574689168476958          0.6017141754970298 1.0000   
         C         C         1.0       0.4938136104048905  0.04035904387863998           0.6306785775393634 1.0000   
         C         C         1.0       0.5311842237887549  0.025852587867291055         0.642956309924189  1.0000   
         C         C         1.0       0.5520278012655634  0.9944711724679856  0.626461001961321  1.0000   
         C         C         1.0       0.5374992698613276  0.9815987857686572  0.5958649924813387 1.0000   
         C         C         1.0       0.4983112759846849  0.9954829088681084  0.5845214920475239 1.0000   
         C         C         1.0       0.4533472581155475  0.08826744382494889           0.5387094132597008 1.0000   
         C         C         1.0       0.46547028057535633           0.1280600362802106 0.5260165684285819 1.0000   
         C         C         1.0       0.4654245988229435  0.16445008040139544           0.546002976797007  1.0000   
         C         C         1.0       0.45774970502981494           0.15860775456587256          0.5785731725262093 1.0000   
         C         C         1.0       0.445830785968568   0.12005540420714628           0.5913298114315868 1.0000   
         C         C         1.0       0.44235747590130303           0.08284059150043609          0.5716808714590839 1.0000   
         H         H         1.0       0.24168460188621668           0.12597560108640757          0.7209723498591426 1.0000   
         H         H         1.0       0.26549326254324795           0.027299329000813798         0.6509291273967662 1.0000   
         H         H         1.0       0.19113105170080577           0.02207834063084146          0.6387072419616618 1.0000   
         H         H         1.0       0.16984150938669942           0.1167675579398265 0.7117068435993211 1.0000   
         H         H         1.0       0.2948932103745991  0.9879984453931807  0.7038641636034637 1.0000   
         H         H         1.0       0.29330350535183086           0.9498143326137114 0.7523365397542388 1.0000   
         H         H         1.0       0.32380053274247017           0.052489652489758454         0.81271021966816   1.0000   
         H         H         1.0       0.3204605976065527  0.10095345672503521           0.7626628564661513 1.0000   
         H         H         1.0       0.3115703976601599  0.10080188214877216           0.634802699234036  1.0000   
         H         H         1.0       0.35639229727979826           0.0852779703013676 0.5904106426237774 1.0000   
         H         H         1.0       0.42648935363280466           0.9999454422667063 0.6528400965266162 1.0000   
         H         H         1.0       0.37340519998655414           0.008751347183994396         0.6950019134346814 1.0000   
         H         H         1.0       0.3160543204364334  0.002234733354744778         0.5179238269744016 1.0000   
         H         H         1.0       0.37295674658832695           0.05239990719907464          0.538689998429108  1.0000   
         H         H         1.0       0.4251374114808356  0.953138007452534   0.5977411786537923 1.0000   
         H         H         1.0       0.3675752550655169  0.9053882107289603  0.5818899099601582 1.0000   
         H         H         1.0       0.4812709139744041  0.06660723624695171           0.6436593700008753 1.0000   
         H         H         1.0       0.5441553874244794  0.038522579059569156         0.6667274442320462 1.0000   
         H         H         1.0       0.5533460330920504  0.9543609773362242  0.5821828992056537 1.0000   
         H         H         1.0       0.4852210184558876  0.9813849657528266  0.5620423716092267 1.0000   
         H         H         1.0       0.4503819516400067  0.05786652282467759           0.5234128996105423 1.0000   
         H         H         1.0       0.46778814205820196           0.13133627113255025          0.5005826787625995 1.0000   
         H         H         1.0       0.4584768289708155  0.18744155253483144           0.5940766082148199 1.0000   
         H         H         1.0       0.4374310417811162  0.11961061318570665           0.6163389102851913 1.0000   
         C         C         1.0       0.15532084284306363           0.88116254371852   0.38190745400213744          1.0000   
         C         C         1.0       0.13401072713044707           0.9189834282491056 0.3855346744039246 1.0000   
         C         C         1.0       0.09451299687802632           0.9162756840241496 0.3979113606098505 1.0000   
         C         C         1.0       0.0750468131444522  0.8786055971458442  0.4080937574808388 1.0000   
         C         C         1.0       0.09795696478793862           0.8415161331986434 0.4045041683073352 1.0000   
         C         C         1.0       0.13664015787755923           0.8420717715931407 0.39204148491031904          1.0000   
         H         H         1.0       0.14828317161316443           0.9481318430499706 0.37581542290701725          1.0000   
         H         H         1.0       0.07798714099733532           0.9469593216092175 0.40157620506273684          1.0000   
         H         H         1.0       0.08396084095621295           0.8109131167924692 0.41309643144736535          1.0000   
         H         H         1.0       0.15242975507056983           0.8120432017767383 0.38554685677348627          1.0000   
         C         C         1.0       0.9985916079372731  0.8222667804766712  0.3889822564755662 1.0000   
         C         C         1.0       0.005089117187657255          0.8347729836854451 0.4207282574567456 1.0000   
         C         C         1.0       0.9867239150339516  0.8103654595433794  0.44711417913986895          1.0000   
         C         C         1.0       0.9613041833637794  0.7759186080632793  0.43972460819778225          1.0000   
         C         C         1.0       0.9561073233678725  0.7638854864818607  0.4067277450520624 1.0000   
         C         C         1.0       0.9721112759050241  0.7887149013839648  0.38241773424995607          1.0000   
         C         C         1.0       0.033735839421088376          0.8757891322794928 0.4313052409467507 1.0000   
         C         C         1.0       0.9992438027959585  0.9120859072704597  0.4292420176337882 1.0000   
         C         C         1.0       0.9717939845497454  0.9159684736093375  0.45566936635941085          1.0000   
         C         C         1.0       0.9375681308928866  0.9421211493350056  0.45352240821337714          1.0000   
         C         C         1.0       0.9296412723774081  0.9659537825592728  0.42583085209787874          1.0000   
         C         C         1.0       0.9537087674088681  0.9592246905232968  0.39873633249994794          1.0000   
         C         C         1.0       0.9904627394979771  0.9357872039898479  0.40123574060384076          1.0000   
         C         C         1.0       0.07042475015306375           0.8376519501284401 0.48268186819146985          1.0000   
         C         C         1.0       0.0852333943675506  0.8364547803252319  0.5136690716897505 1.0000   
         C         C         1.0       0.08569802668939366           0.8739101507937816 0.5326078880933812 1.0000   
         C         C         1.0       0.0755190746029647  0.9124567105324847  0.51662636391078   1.0000   
         C         C         1.0       0.06282483513459684           0.9124855647894253 0.48456371137358   1.0000   
         C         C         1.0       0.0562109729533434  0.8734992831638606  0.4678607917073454 1.0000   
         C         C         1.0       0.09377946659320513           0.8758304621940525 0.5711498483301108 1.0000   
         C         C         1.0       0.05375118710082125           0.7650894495347643 0.6322251343651956 1.0000   
         C         C         1.0       0.09058822350368088           0.7868339456661227 0.6409840297576869 1.0000   
         C         C         1.0       0.10226653539602046           0.8220056795037517 0.6215222730139153 1.0000   
         C         C         1.0       0.08374760070336984           0.8313907604247847 0.59151093533263   1.0000   
         C         C         1.0       0.04806251786406502           0.8072537141097974 0.5839528178795748 1.0000   
         C         C         1.0       0.03213246329581348           0.7751469711759751 0.6035837360886291 1.0000   
         C         C         1.0       0.0627080127787988  0.9040068497669907  0.5909476199986321 1.0000   
         C         C         1.0       0.020331174497648652          0.9062017505240529 0.5830510548425832 1.0000   
         C         C         1.0       0.9938407759298882  0.9307994202083699  0.6007563512112369 1.0000   
         C         C         1.0       0.00960332977741829           0.9561212592442322 0.626495513070962  1.0000   
         C         C         1.0       0.05033548030201414           0.9525799748834507 0.634939170751002  1.0000   
         C         C         1.0       0.07703571428216793           0.9269444095512444 0.617979370153265  1.0000   
         C         C         1.0       0.15715527883627797           0.9320027250035644 0.5727113610915946 1.0000   
         C         C         1.0       0.20061175084483404           0.9399706609388873 0.5729303156165989 1.0000   
         C         C         1.0       0.22828458368974375           0.9057430929792406 0.5730988596284096 1.0000   
         C         C         1.0       0.21216624937195275           0.8645925381271736 0.5705066004817797 1.0000   
         C         C         1.0       0.17002719861175403           0.8578428649987972 0.5712140799877456 1.0000   
         C         C         1.0       0.1413725334181111  0.8895359709435868  0.5722485501111422 1.0000   
         H         H         1.0       0.011144257550177228          0.8438431627314311 0.37088121076594477          1.0000   
         H         H         1.0       0.9884312194930672  0.8193772188263557  0.472503802108581  1.0000   
         H         H         1.0       0.9473844805962764  0.7595142736052758  0.460715331169805  1.0000   
         H         H         1.0       0.9684616304362887  0.7830661656029559  0.35685037088371396          1.0000   
         H         H         1.0       0.9798701163662532  0.8933672227629864  0.4760503532742757 1.0000   
         H         H         1.0       0.9169698615084572  0.946789928623188   0.4743270108879919 1.0000   
         H         H         1.0       0.9461482539544118  0.9734591302916992  0.3764859002647591 1.0000   
         H         H         1.0       0.01034606706708763           0.9326430997529112 0.38009327403511534          1.0000   
         H         H         1.0       0.06646552970971738           0.8064365289028486 0.4703087786769398 1.0000   
         H         H         1.0       0.09332613360169219           0.8057805248891906 0.5220131711748692 1.0000   
         H         H         1.0       0.07417802942260403           0.9416690774423815 0.5294890536642899 1.0000   
         H         H         1.0       0.05590947559463376           0.9411101520289215 0.47208688897075907          1.0000   
         H         H         1.0       0.10911583242300109           0.7759886956578751 0.6616298815713506 1.0000   
         H         H         1.0       0.12792841238049288           0.8418362823818444 0.6308639548747987 1.0000   
         H         H         1.0       0.02789737849788953           0.8141018586545548 0.5653559579917233 1.0000   
         H         H         1.0       0.003808953274740068          0.7575212524690507 0.5973194142761882 1.0000   
         H         H         1.0       0.008153133942080393          0.8925635131135874 0.559855110855091  1.0000   
         H         H         1.0       0.9646281971965247  0.9331719186622893  0.5890444617675847 1.0000   
         H         H         1.0       0.06428092315953908           0.9695296945956314 0.6560926360504852 1.0000   
         H         H         1.0       0.11049990009678631           0.9285132570180468 0.6245304958549064 1.0000   
         H         H         1.0       0.13633259830355665           0.9593244973627643 0.5730660597336104 1.0000   
         H         H         1.0       0.2130272477369142  0.9717440253099512  0.5732780974749986 1.0000   
         H         H         1.0       0.23011915826271784           0.8378936565060429 0.5698885279215128 1.0000   
         H         H         1.0       0.16002673851178217           0.8248204472996765 0.5690468251123829 1.0000   
         C         C         1.0       0.09535120641525723           0.13766765516327578          0.6557874578801013 1.0000   
         C         C         1.0       0.0832911708811993  0.149426155551836   0.6870160011551384 1.0000   
         C         C         1.0       0.07808324026283794           0.19222537147102275          0.6945440571261169 1.0000   
         C         C         1.0       0.07996318195751251           0.22572705834062576          0.6712557673008539 1.0000   
         C         C         1.0       0.09059004531679499           0.21203095616846407          0.6397842046772807 1.0000   
         C         C         1.0       0.10151333122469954           0.17174336526357134          0.6324809267433521 1.0000   
         H         H         1.0       0.07521198581340971           0.12732917960627962          0.7060313787364703 1.0000   
         H         H         1.0       0.07042241899525281           0.19627647313268703          0.7205426966138558 1.0000   
         H         H         1.0       0.09235709848774012           0.2353948789231344 0.6195642575760739 1.0000   
         H         H         1.0       0.11089240229328617           0.16394042599888622          0.607257560352415  1.0000   
         C         C         1.0       0.13760027514918013           0.3037417989851426 0.6595667931660836 1.0000   
         C         C         1.0       0.09536443494848247           0.3108447173307721 0.6660092406960655 1.0000   
         C         C         1.0       0.08153442325787745           0.35202847395724146          0.6618368039739958 1.0000   
         C         C         1.0       0.10821049896991287           0.38631077515834794          0.6510846013361979 1.0000   
         C         C         1.0       0.14994767578005871           0.3766856796652527 0.6465557037581395 1.0000   
         C         C         1.0       0.16381435950937118           0.33611145922822006          0.6496419776440989 1.0000   
         C         C         1.0       0.06534855152702557           0.27418014362909904          0.6817204376578965 1.0000   
         C         C         1.0       0.06810415296769202           0.2866813190904109 0.7191467722952127 1.0000   
         C         C         1.0       0.038787318564040565          0.31198593859340545          0.7346616415475725 1.0000   
         C         C         1.0       0.04014472017453297           0.31975453495693806          0.7674473685873583 1.0000   
         C         C         1.0       0.0758893968373353  0.30893900700104776           0.7857756338044031 1.0000   
         C         C         1.0       0.10785943211392383           0.2886129489743537 0.7700973087976423 1.0000   
         C         C         1.0       0.10289434586179343           0.27659663776967097          0.7367940133961781 1.0000   
         C         C         1.0       0.009613080386184912          0.27928330793673717          0.6332892469706353 1.0000   
         C         C         1.0       0.9751342502098955  0.26261846488552837           0.6179910128415413 1.0000   
         C         C         1.0       0.9497707034589122  0.23274780521377778           0.632473493259372  1.0000   
         C         C         1.0       0.9565528717961678  0.22620282877005768           0.6650889380564381 1.0000   
         C         C         1.0       0.9903898223771813  0.24136881669464522           0.6817971203193518 1.0000   
         C         C         1.0       0.018494406543318128          0.2701105073914719 0.6670518147053268 1.0000   
         C         C         1.0       0.9154597740457929  0.20205047336244747           0.6142124271138735 1.0000   
         C         C         1.0       0.9076894231709669  0.20592117265794152           0.506269964961325  1.0000   
         C         C         1.0       0.8732090263629524  0.19684360431957684           0.5245257605119608 1.0000   
         C         C         1.0       0.8778139265970447  0.19857658800707717           0.557872275136173  1.0000   
         C         C         1.0       0.9153555915606877  0.20477128713307696           0.5741772212001561 1.0000   
         C         C         1.0       0.9508698984009346  0.20903187686134325           0.554379832922313  1.0000   
         C         C         1.0       0.9471376733192113  0.20909407751009337           0.5200530836281598 1.0000   
         C         C         1.0       0.874465712785032   0.21381605094969414           0.6326935446122975 1.0000   
         C         C         1.0       0.8553540369221351  0.18703866834141863           0.6574354218611236 1.0000   
         C         C         1.0       0.8204715565995502  0.20067410621748735           0.6744780934217235 1.0000   
         C         C         1.0       0.8024849187120991  0.2403129841958288  0.6663204296600839 1.0000   
         C         C         1.0       0.8194628775420072  0.26493868304748375           0.640603554804913  1.0000   
         C         C         1.0       0.8550842368498984  0.2516920623351229  0.6243327930811813 1.0000   
         C         C         1.0       0.9031126563676016  0.11595054459788877           0.6135026055541101 1.0000   
         C         C         1.0       0.9177823182944262  0.07504336020176074           0.6123313979672709 1.0000   
         C         C         1.0       0.9594722529787989  0.06705085828613626           0.6146560032623062 1.0000   
         C         C         1.0       0.9864950247871025  0.10184582533506123           0.6144473299873775 1.0000   
         C         C         1.0       0.9733478289698346  0.14237944273369818           0.6147096478868521 1.0000   
         C         C         1.0       0.9306595355972911  0.15138027532485238           0.6158058509886661 1.0000   
         H         H         1.0       0.1494197584600821  0.2703724257001485  0.6639339339925481 1.0000   
         H         H         1.0       0.04981712121238047           0.3582009764025002 0.6659561643975022 1.0000   
         H         H         1.0       0.09516659663937291           0.41860539265867336          0.6494175528550401 1.0000   
         H         H         1.0       0.1979873641209073  0.3293286286067376  0.6467837366709163 1.0000   
         H         H         1.0       0.01199050327908524           0.32284543031683277          0.7187296784575877 1.0000   
         H         H         1.0       0.016594067914385887          0.3389893461101597 0.776136173886477  1.0000   
         H         H         1.0       0.13567518948332527           0.2827162447305578 0.783958874540039  1.0000   
         H         H         1.0       0.12892254225215574           0.2584598490156639 0.7288825637707166 1.0000   
         H         H         1.0       0.03288507647382097           0.29480005889405864          0.6175147361640232 1.0000   
         H         H         1.0       0.9703770785873899  0.26978299187289256           0.5927434181935018 1.0000   
         H         H         1.0       0.9359514050071278  0.20144933044578606           0.6773823267724127 1.0000   
         H         H         1.0       0.9979819912741857  0.23344985863288875           0.7079476013138211 1.0000   
         H         H         1.0       0.8434014296671382  0.1978868711739927  0.5126745711940706 1.0000   
         H         H         1.0       0.8496906039539142  0.1919494017988347  0.5734015149065639 1.0000   
         H         H         1.0       0.9804332281774094  0.20804396169748016           0.565544902025448  1.0000   
         H         H         1.0       0.9737909813569545  0.21594403264615175           0.5053129739144386 1.0000   
         H         H         1.0       0.867244908306551   0.1564989858485424  0.6622522189735341 1.0000   
         H         H         1.0       0.8063403678234494  0.18186596178898798           0.6936889980621991 1.0000   
         H         H         1.0       0.8058118671591281  0.2960875675052289  0.6336894389458338 1.0000   
         H         H         1.0       0.8696279854826798  0.2691221298416861  0.6052628248947272 1.0000   
         H         H         1.0       0.8697721871662569  0.11838311523042777           0.607480840034144  1.0000   
         H         H         1.0       0.8962997084429245  0.049582988039958274         0.604653077521762  1.0000   
         H         H         1.0       0.02011695285521431           0.09518844098476903          0.6136982335366097 1.0000   
         H         H         1.0       0.9919578461349898  0.16908755376571624           0.6133026387239499 1.0000   
         C         C         1.0       0.1739539002415246  0.8763582222215295  0.308467807191649  1.0000   
         C         C         1.0       0.16802774791275688           0.8328348521168767 0.3052223440989113 1.0000   
         C         C         1.0       0.13370898765566155           0.8165476457015491 0.2885420041896239 1.0000   
         C         C         1.0       0.10379960205059477           0.8437264298263718 0.27660322034416224          1.0000   
         C         C         1.0       0.11213244007434656           0.8873882106228332 0.27755947632588984          1.0000   
         C         C         1.0       0.14559317482268852           0.9035229113465609 0.2938189090417127 1.0000   
         H         H         1.0       0.19077047850413714           0.8118371687173462 0.3197980170840007 1.0000   
         H         H         1.0       0.1299043431355477  0.7803791133218704  0.2868919654547944 1.0000   
         H         H         1.0       0.09332494461601791           0.9121521766076268 0.2654497611555201 1.0000   
         H         H         1.0       0.15135358714772057           0.9371087025800277 0.29580293149200476          1.0000   
         C         C         1.0       0.020063661464530425          0.8710208241808297 0.2992855837475749 1.0000   
         C         C         1.0       0.024219523716282665          0.8593164624439122 0.26618651503066204          1.0000   
         C         C         1.0       0.9950321442384649  0.8736419272903629  0.24334410611907004          1.0000   
         C         C         1.0       0.9640598728200068  0.9003736396163186  0.2542415359912482 1.0000   
         C         C         1.0       0.9593197610165226  0.9103128877211577  0.2876415102236916 1.0000   
         C         C         1.0       0.9879396109679103  0.8964272297495063  0.30939763086898264          1.0000   
         C         C         1.0       0.06120328840514886           0.827902841730823  0.2584048328028626 1.0000   
         C         C         1.0       0.039417274837264184          0.7831465325863538 0.2691583324032492 1.0000   
         C         C         1.0       0.017340816238560652          0.7599391495104048 0.24473805171813112          1.0000   
         C         C         1.0       0.0032912346406623882         0.7191538867772485 0.2508217524860276 1.0000   
         C         C         1.0       0.0024812225913057873         0.7026832703356134 0.2826470324508689 1.0000   
         C         C         1.0       0.02093285243691434           0.724251398891506  0.30811340317511154          1.0000   
         C         C         1.0       0.04039633967095407           0.765019031356817  0.30076799818718597          1.0000   
         C         C         1.0       0.07386544609880992           0.8493650741320972 0.19681223820840069          1.0000   
         C         C         1.0       0.08327785482161186           0.836037580429489  0.16533380925159652          1.0000   
         C         C         1.0       0.09472761399158643           0.7940964708300431 0.1585965132422165 1.0000   
         C         C         1.0       0.1095817226945446  0.7721384048397874  0.1861353493045774 1.0000   
         C         C         1.0       0.10258322850811138           0.7859218762606545 0.217182435898403  1.0000   
         C         C         1.0       0.07943612018682888           0.8225767689393741 0.22324096115251707          1.0000   
         C         C         1.0       0.09032653469537379           0.7679946459134113 0.12503749539027142          1.0000   
         C         C         1.0       0.004401669250339024          0.8130437430468558 0.05171221484838987          1.0000   
         C         C         1.0       0.0331049609120617  0.7832908014680863  0.04262172400859844          1.0000   
         C         C         1.0       0.06021855428114197           0.7702968337005135 0.06592243273780268          1.0000   
         C         C         1.0       0.05733363247772802           0.7814676067284307 0.09835291243233109          1.0000   
         C         C         1.0       0.023465866171510932          0.8065522117449159 0.10687840238602353          1.0000   
         C         C         1.0       0.9985509828961947  0.8240015113968568  0.08341519214029985          1.0000   
         C         C         1.0       0.07048673913635296           0.7205311732117304 0.13237081261939543          1.0000   
         C         C         1.0       0.035967438655058435          0.7165384843226084 0.15299010239274632          1.0000   
         C         C         1.0       0.019386425605260493          0.6768537582245812 0.15971975357870283          1.0000   
         C         C         1.0       0.034835286657767216          0.639833670336836  0.1442658105914402 1.0000   
         C         C         1.0       0.06681053696457473           0.6436127448025063 0.12280918900814039          1.0000   
         C         C         1.0       0.08644036556915873           0.68286447921682   0.1176245290224279 1.0000   
         C         C         1.0       0.16727976232282277           0.7443355866606468 0.12353803744033356          1.0000   
         C         C         1.0       0.20875959949462672           0.7516751039835183 0.11365938578758228          1.0000   
         C         C         1.0       0.2186498981256985  0.7875311662452296  0.09570707737595154          1.0000   
         C         C         1.0       0.1901048446456116  0.8179832915155402  0.08904848576693383          1.0000   
         C         C         1.0       0.1480300497380603  0.8106616201882976  0.09736911799651907          1.0000   
         C         C         1.0       0.13635168316263763           0.7743684531566475 0.11445781136654906          1.0000   
         H         H         1.0       0.03765544004827478           0.8545575672804557 0.318429789681809  1.0000   
         H         H         1.0       0.9974539282554135  0.8682792047790244  0.21827809696886413          1.0000   
         H         H         1.0       0.9398617226886459  0.9130513138404882  0.23835314753192383          1.0000   
         H         H         1.0       0.986689047238117   0.9023309359475167  0.3353918140006328 1.0000   
         H         H         1.0       0.013030499522974859          0.7732879793327933 0.22185349349070108          1.0000   
         H         H         1.0       0.9867459821468236  0.7028315605684877  0.2325156539541547 1.0000   
         H         H         1.0       0.02000679490286883           0.7121875382379141 0.3325434444236926 1.0000   
         H         H         1.0       0.05615269583566262           0.7821385180412179 0.3210767943427734 1.0000   
         H         H         1.0       0.061106971211038516          0.8798526068612252 0.20236441753865902          1.0000   
         H         H         1.0       0.07783990802748963           0.8597782784739497 0.1471109514867003 1.0000   
         H         H         1.0       0.1183577257266145  0.7380302751615426  0.18452301340592153          1.0000   
         H         H         1.0       0.10783350250735435           0.7604439118912839 0.23540267242765267          1.0000   
         H         H         1.0       0.03679576107415465           0.7737792686428789 0.018145826846450195         1.0000   
         H         H         1.0       0.08617632154443745           0.7522806821482176 0.05719694989848014          1.0000   
         H         H         1.0       0.0182767601334326  0.8135184040968518  0.1321338298383683 1.0000   
         H         H         1.0       0.9712099992668526  0.8401175523584066  0.09163613142760385          1.0000   
         H         H         1.0       0.023475284662468843          0.7469149243985955 0.16077393767607162          1.0000   
         H         H         1.0       0.991425013106306   0.6767607221510159  0.17503072169689915          1.0000   
         H         H         1.0       0.07856063850194969           0.6164696922573664 0.11096707284821822          1.0000   
         H         H         1.0       0.11155536310100814           0.6879346331213518 0.10050415970671658          1.0000   
         H         H         1.0       0.1602036569184534  0.7149952728980203  0.13677209886082717          1.0000   
         H         H         1.0       0.232522691953561   0.7295713402295844  0.11866383578470835          1.0000   
         H         H         1.0       0.1988675650354499  0.8478897392125087  0.0797414883081315 1.0000   
         H         H         1.0       0.12257718557739325           0.8339288572282472 0.09027578307248411          1.0000   
         C         C         1.0       0.13642005116311937           0.5418969593576564 0.00011039910041810153       1.0000   
         C         C         1.0       0.12230754890945948           0.5354618452408518 0.9682018078126882 1.0000   
         C         C         1.0       0.1045779668879402  0.49534424307514135           0.9595093958966012 1.0000   
         C         C         1.0       0.10755688925647133           0.4598886252902279 0.9798716831230697 1.0000   
         C         C         1.0       0.12662651809420053           0.46670073795325406          0.011006687690864991         1.0000   
         C         C         1.0       0.14047241703009364           0.506665606892465  0.019864053515599167         1.0000   
         H         H         1.0       0.1180528195003688  0.5612028664967544  0.9514868577331546 1.0000   
         H         H         1.0       0.0913235319289194  0.4934941053751098  0.9347985349407718 1.0000   
         H         H         1.0       0.12919280312892295           0.44047178952003746          0.02702211905259233          1.0000   
         H         H         1.0       0.1503822917552187  0.5073439934441951  0.04512950216475664          1.0000   
         C         C         1.0       0.1471420788327049  0.3706092781500317  0.9908627024459397 1.0000   
         C         C         1.0       0.1037875322809505  0.3729899213312484  0.987046305638727  1.0000   
         C         C         1.0       0.08026852558756148           0.3347874019343368 0.9868251788835268 1.0000   
         C         C         1.0       0.0994277096975984  0.29667338465260473           0.9888281918479283 1.0000   
         C         C         1.0       0.14290354789336635           0.2947791290653205 0.9916464892262801 1.0000   
         C         C         1.0       0.16582738866478508           0.331988582924941  0.9924573157100677 1.0000   
         C         C         1.0       0.08660842576434165           0.4147410211760357 0.9721627978560239 1.0000   
         C         C         1.0       0.08672937715970928           0.4031515834764062 0.9332408272745206 1.0000   
         C         C         1.0       0.051228071537382534          0.3834744071812503 0.9177838992022991 1.0000   
         C         C         1.0       0.05045846733558036           0.3731872260825633 0.8850227106655162 1.0000   
         C         C         1.0       0.08414822759178069           0.3800965692141467 0.8664119393643083 1.0000   
         C         C         1.0       0.11917748096487224           0.39739538980790545          0.8806456960866113 1.0000   
         C         C         1.0       0.1200257037725318  0.4098282894637283  0.9135427314412936 1.0000   
         C         C         1.0       0.038738972222229474          0.41891346977265587          0.023165407395025372         1.0000   
         C         C         1.0       0.001619357158030077          0.42916824754359534          0.03860669069461075          1.0000   
         C         C         1.0       0.9681632789883033  0.4506470894583886  0.020838611886605296         1.0000   
         C         C         1.0       0.9744966657075406  0.4548789220106744  0.9863567035776873 1.0000   
         C         C         1.0       0.01105394577114338           0.444372884011747  0.9721222709383696 1.0000   
         C         C         1.0       0.04203410865365253           0.4243737549640284 0.9898490099868817 1.0000   
         C         C         1.0       0.9283220344359403  0.46857806310766814           0.0390875469397478 1.0000   
         C         C         1.0       0.8714374691712697  0.3432467810579544  0.06574536511119355          1.0000   
         C         C         1.0       0.8887062409254186  0.3674491251979236  0.09029384256724685          1.0000   
         C         C         1.0       0.9083298289409548  0.4063311913332306  0.08125000963592022          1.0000   
         C         C         1.0       0.9057020331693564  0.4248678264996255  0.049725050868979624         1.0000   
         C         C         1.0       0.8836920981766964  0.4010078650413659  0.026686854281026795         1.0000   
         C         C         1.0       0.8671216852591119  0.36021708206570086           0.03409834861925646          1.0000   
         C         C         1.0       0.9023134093836972  0.5037090395910838  0.019349996302808092         1.0000   
         C         C         1.0       0.920347900192104   0.5404447016531979  0.004262246273749382         1.0000   
         C         C         1.0       0.8976890016745327  0.572628208192234   0.9910262709192154 1.0000   
         C         C         1.0       0.855083605140283   0.567612060406833   0.9871218915476185 1.0000   
         C         C         1.0       0.837798156975701   0.530441576852454   0.9979183049302981 1.0000   
         C         C         1.0       0.8592063891209593  0.49905874340304485           0.014403904932674072         1.0000   
         C         C         1.0       0.9133539844360674  0.5064676764852529  0.09660923118195508          1.0000   
         C         C         1.0       0.9224872415523638  0.5369197383689145  0.11965563932450993          1.0000   
         C         C         1.0       0.9590749976820218  0.5609075652674322  0.11674664191037663          1.0000   
         C         C         1.0       0.9857105327136073  0.5535199011861289  0.09122454307258723          1.0000   
         C         C         1.0       0.9769787522907133  0.5213094233448063  0.06801058224301197          1.0000   
         C         C         1.0       0.9387880094986157  0.499380729992696   0.0689309970736519 1.0000   
         H         H         1.0       0.16560274921911933           0.40060415191096244          0.9888772380735088 1.0000   
         H         H         1.0       0.04552641749749307           0.332413941161593  0.9846029306933721 1.0000   
         H         H         1.0       0.08145790855861519           0.2681365183144902 0.9820525587359358 1.0000   
         H         H         1.0       0.2018323942495373  0.3314533749620569  0.9927975622690558 1.0000   
         H         H         1.0       0.025183240625457504          0.37673841111717826          0.9322497313900795 1.0000   
         H         H         1.0       0.023183027793151508          0.3557033721953514 0.874251247318279  1.0000   
         H         H         1.0       0.1466191295457504  0.3975580157887616  0.8652621896107046 1.0000   
         H         H         1.0       0.14785782232825234           0.4246915048828181 0.9218169064429288 1.0000   
         H         H         1.0       0.06409670642262728           0.40560667113132476          0.03637000893769149          1.0000   
         H         H         1.0       0.0020960206876703413         0.42610368976305535          0.06400930649389497          1.0000   
         H         H         1.0       0.9518605325873208  0.4705182874562685  0.9714156031334691 1.0000   
         H         H         1.0       0.012587851656996163          0.451723815365199  0.9455459826070765 1.0000   
         H         H         1.0       0.8920368723109952  0.3545890968702539  0.11496388179118408          1.0000   
         H         H         1.0       0.9289386960857375  0.4200719942134639  0.10011775612851895          1.0000   
         H         H         1.0       0.8746861035071589  0.4145544159947666  0.0033268020325520897        1.0000   
         H         H         1.0       0.8523061557807134  0.34071623077339624           0.016612009510618364         1.0000   
         H         H         1.0       0.9542777828759302  0.546604155313011   0.007253240958046581         1.0000   
         H         H         1.0       0.9119905945734019  0.6037764351568844  0.983459337135183  1.0000   
         H         H         1.0       0.8040699454144322  0.5256107685004285  0.998735736915454  1.0000   
         H         H         1.0       0.8413894577159892  0.4693949349897955  0.021055962595249403         1.0000   
         H         H         1.0       0.8821912823850695  0.49535293167933453           0.09764710902120496          1.0000   
         H         H         1.0       0.8975659890232135  0.5477358780843443  0.13705772528096605          1.0000   
         H         H         1.0       0.014096947961840023          0.5731147542481119 0.0911383483701072 1.0000   
         H         H         1.0       0.9983157198243078  0.5158437130512095  0.04858230155122346          1.0000   
         C         C         1.0       0.809409949885562   0.4171792114071027  0.28504251845648754          1.0000   
         C         C         1.0       0.7756601481263974  0.4407882859215064  0.2917229398109082 1.0000   
         C         C         1.0       0.7711946970708153  0.47947041060928824           0.2779058200979057 1.0000   
         C         C         1.0       0.8018855461148673  0.49719942259407585           0.25755557996087547          1.0000   
         C         C         1.0       0.8370375145959023  0.4715163260271237  0.2509068201195694 1.0000   
         C         C         1.0       0.839936514997049   0.4322405561991869  0.26408618917004717          1.0000   
         H         H         1.0       0.7531229211240252  0.4268074611365388  0.3088393694975918 1.0000   
         H         H         1.0       0.7438449886562017  0.4967878361080294  0.2828421191531803 1.0000   
         H         H         1.0       0.8605562081741116  0.4833858608661556  0.23501582645543964          1.0000   
         H         H         1.0       0.8670526371067993  0.4117246898941066  0.2594366250369409 1.0000   
         C         C         1.0       0.8678419170415624  0.5644549168584017  0.27521517348472846          1.0000   
         C         C         1.0       0.8401178368649067  0.5724015171360479  0.24977811490710042          1.0000   
         C         C         1.0       0.845655155885947   0.6116923035936688  0.23444216061868683          1.0000   
         C         C         1.0       0.877081808156273   0.6400361517728845  0.24360051909761105          1.0000   
         C         C         1.0       0.9035215404903382  0.6312901340371375  0.2693256692732358 1.0000   
         C         C         1.0       0.9004283225829867  0.5912569997835811  0.2849822492252086 1.0000   
         C         C         1.0       0.7996798270115205  0.544204307737357   0.24250341635983547          1.0000   
         C         C         1.0       0.7649230403005303  0.5744268138163313  0.2597732932517797 1.0000   
         C         C         1.0       0.7397007957399698  0.6003946762143958  0.24136768074979054          1.0000   
         C         C         1.0       0.7130998283156295  0.6291439212372667  0.2561797255722567 1.0000   
         C         C         1.0       0.7084393489400999  0.6294670292999935  0.28999724521712383          1.0000   
         C         C         1.0       0.7339691253951378  0.6049895978984383  0.3094562883012897 1.0000   
         C         C         1.0       0.76092801411645    0.5778647393389359  0.2941845760367347 1.0000   
         C         C         1.0       0.8180308903466309  0.5443083898870066  0.17862451686958697          1.0000   
         C         C         1.0       0.8053882380186772  0.5457528820014202  0.14669127421308661          1.0000   
         C         C         1.0       0.7641718105356627  0.5372353901738347  0.13895628785707384          1.0000   
         C         C         1.0       0.7391662819537156  0.5173685909573115  0.16461611265535836          1.0000   
         C         C         1.0       0.7522965794532975  0.5182617530097094  0.19616781700527108          1.0000   
         C         C         1.0       0.7905045134110549  0.5359482231345586  0.20420722381818146          1.0000   
         C         C         1.0       0.7387395747962252  0.5478065949786786  0.10635657336535188          1.0000   
         C         C         1.0       0.7962394475642971  0.6209661745032218  0.025654216272074207         1.0000   
         C         C         1.0       0.7583015551031642  0.6004490097417864  0.02251062646028022          1.0000   
         C         C         1.0       0.7388385046236503  0.5778034845683077  0.04712178897456163          1.0000   
         C         C         1.0       0.7599620573463716  0.5772114320358618  0.07757436390555891          1.0000   
         C         C         1.0       0.7937782646851084  0.6058549176685383  0.08256843609307223          1.0000   
         C         C         1.0       0.814884656057896   0.6220562289246326  0.0565012870505543 1.0000   
         C         C         1.0       0.7012837154488019  0.5765030432770676  0.11587411989872747          1.0000   
         C         C         1.0       0.7075866649517215  0.6089147255276945  0.1384858097365203 1.0000   
         C         C         1.0       0.6806373555053954  0.6411938481057533  0.14367837045210577          1.0000   
         C         C         1.0       0.6456940874040981  0.6431871996991175  0.12290792359363745          1.0000   
         C         C         1.0       0.6359473660935084  0.6103467950343205  0.10203373795171707          1.0000   
         C         C         1.0       0.6624422832867196  0.5744630202593658  0.10004234414612752          1.0000   
         C         C         1.0       0.6929178302394823  0.476303285365622   0.09494541025247975          1.0000   
         C         C         1.0       0.6889394199794847  0.43607303792860047           0.07985615436887945          1.0000   
         C         C         1.0       0.7208134695382201  0.4204241085080203  0.061231440708831776         1.0000   
         C         C         1.0       0.7576835321597754  0.4443544163285985  0.057730295456116  1.0000   
         C         C         1.0       0.7630741968421032  0.4814953284537106  0.07282507332034074          1.0000   
         C         C         1.0       0.7303441344459761  0.5007328805574762  0.09042737884603083          1.0000   
         H         H         1.0       0.8609610403646817  0.5385242830765561  0.29170196926811087          1.0000   
         H         H         1.0       0.820034977836107   0.6279491526176607  0.21862099760118836          1.0000   
         H         H         1.0       0.8739576973085715  0.6736325754153724  0.23479020646263712          1.0000   
         H         H         1.0       0.9202876305709862  0.5812617697000236  0.3049897103245172 1.0000   
         H         H         1.0       0.7386869776651885  0.6021084405041068  0.21491199491141497          1.0000   
         H         H         1.0       0.6945135702235289  0.64830359779591    0.23946469400336062          1.0000   
         H         H         1.0       0.7304952776298588  0.6055451765953545  0.33574635168864775          1.0000   
         H         H         1.0       0.7796918363140491  0.5586307736403442  0.3091064501180877 1.0000   
         H         H         1.0       0.8496989353915534  0.5534646166502788  0.1828259558099697 1.0000   
         H         H         1.0       0.829209480233585   0.5507772387538361  0.1298903227591435 1.0000   
         H         H         1.0       0.7058510894947708  0.5100462049982952  0.16066314878554025          1.0000   
         H         H         1.0       0.7295397352844171  0.5132010999769475  0.2160481327775618 1.0000   
         H         H         1.0       0.7407790460509502  0.5989148034066344  0.9999019815380473 1.0000   
         H         H         1.0       0.7170797149920802  0.5533638047264311  0.040388015174217744         1.0000   
         H         H         1.0       0.8088951510240799  0.6113999252671096  0.10645856787554485          1.0000   
         H         H         1.0       0.8440435445642344  0.6429345849535666  0.05973798865140671          1.0000   
         H         H         1.0       0.7371646164147102  0.6130330407107766  0.15106604844488092          1.0000   
         H         H         1.0       0.6863722997494098  0.6626916118704654  0.1638366707743798 1.0000   
         H         H         1.0       0.6071686323029221  0.6087321710387346  0.087435731759298  1.0000   
         H         H         1.0       0.652479438638503   0.551625456254261   0.08011125317550893          1.0000   
         H         H         1.0       0.6668434918769608  0.4881793000394779  0.108433962032132  1.0000   
         H         H         1.0       0.6630500597029128  0.4139907127225438  0.08698469642825404          1.0000   
         H         H         1.0       0.7824147653365774  0.42535866400841976           0.04541221622966845          1.0000   
         H         H         1.0       0.7952066607914208  0.4955147021347361  0.0730875008161698 1.0000   
         C         C         1.0       0.4206882594875737  0.45815062889108316           0.9628187565227407 1.0000   
         C         C         1.0       0.42584697644993313           0.4865242116029432 0.936544060933426  1.0000   
         C         C         1.0       0.40748294015948233           0.5258759514017047 0.9353137335626432 1.0000   
         C         C         1.0       0.3798302381738142  0.5395571442331866  0.9600139097959705 1.0000   
         C         C         1.0       0.375743983226785   0.5115866607407564  0.9869781028646916 1.0000   
         C         C         1.0       0.39500409109344364           0.4718346227655705 0.9887587129937478 1.0000   
         H         H         1.0       0.4428363321960678  0.4757093372077131  0.914650661794549  1.0000   
         H         H         1.0       0.41186402808037753           0.5481201444922731 0.9142972718832245 1.0000   
         H         H         1.0       0.35705629714704484           0.523225669607029  0.00870598657746724          1.0000   
         H         H         1.0       0.38912130545928464           0.4529206456496038 0.009452477283166116         1.0000   
         C         C         1.0       0.2822404532887186  0.5470703528152342  0.9771598814535174 1.0000   
         C         C         1.0       0.31037777459397753           0.5819199866818251 0.9779019807361862 1.0000   
         C         C         1.0       0.2977287957598705  0.6184961462372178  0.9945187122666307 1.0000   
         C         C         1.0       0.25863965321361676           0.6212377227732011 0.007508910496415  1.0000   
         C         C         1.0       0.23192832230591548           0.58541002393617   0.009199798526147385         1.0000   
         C         C         1.0       0.24427115212141953           0.5485693812578993 0.9929664683835793 1.0000   
         C         C         1.0       0.35727529553356235           0.5840010296458049 0.9604396589821954 1.0000   
         C         C         1.0       0.34301665499835327           0.6083969625256036 0.9292103738690338 1.0000   
         C         C         1.0       0.3391407751566475  0.6528780183865944  0.9260082563679526 1.0000   
         C         C         1.0       0.3357075887832119  0.6735817723896937  0.8974522334965638 1.0000   
         C         C         1.0       0.33353786472777736           0.6494573945862603 0.8692593013100176 1.0000   
         C         C         1.0       0.33065240453752237           0.6047547232508115 0.8708446682610913 1.0000   
         C         C         1.0       0.3348153282855413  0.5845929706783874  0.9001564482542846 1.0000   
         C         C         1.0       0.3890338259109439  0.6092170176561923  0.016216815375919128         1.0000   
         C         C         1.0       0.41316082832082346           0.6380828786030691 0.03396225384911499          1.0000   
         C         C         1.0       0.43736665659771895           0.6693046477625707 0.019116459565944374         1.0000   
         C         C         1.0       0.44211356811567054           0.66635216404604   0.986586947375982  1.0000   
         C         C         1.0       0.4224378900762856  0.6349452441812277  0.9682338364557194 1.0000   
         C         C         1.0       0.3899324110025116  0.6098493402958218  0.9822957644799916 1.0000   
         C         C         1.0       0.4524216678332039  0.7108064468724185  0.04114114148986804          1.0000   
         C         C         1.0       0.32292229446062576           0.7522027733221509 0.057680627949463305         1.0000   
         C         C         1.0       0.34660012370041904           0.7360689112859137 0.08410694484892364          1.0000   
         C         C         1.0       0.38816371135300315           0.7282390094204387 0.07931099722877487          1.0000   
         C         C         1.0       0.4060292847328295  0.7308931394294119  0.04912403978648307          1.0000   
         C         C         1.0       0.383053107589405   0.7483719676700041  0.023575711529608048         1.0000   
         C         C         1.0       0.34251186535829237           0.7609933054105888 0.027954188057693334         1.0000   
         C         C         1.0       0.48523163259736013           0.7419600186266231 0.02372521179449492          1.0000   
         C         C         1.0       0.5214258593255814  0.7231653992171813  0.011619667868261473         1.0000   
         C         C         1.0       0.555300647381412   0.7516578726503703  0.005377051851650399         1.0000   
         C         C         1.0       0.5517003331618461  0.7966347352989827  0.007335087728992345         1.0000   
         C         C         1.0       0.5119182357711003  0.8110902875206282  0.010227542239008895         1.0000   
         C         C         1.0       0.4819784574231388  0.7856161828234154  0.023303754181605116         1.0000   
         C         C         1.0       0.4899368048248499  0.7277880824178462  0.09553504509312113          1.0000   
         C         C         1.0       0.5185777747342001  0.7179069150738655  0.12042761252182241          1.0000   
         C         C         1.0       0.5351128883318039  0.6755161234937224  0.12083909409785634          1.0000   
         C         C         1.0       0.5228161350361601  0.6462344943074302  0.09823041114514917          1.0000   
         C         C         1.0       0.4970981687272286  0.6573814919708225  0.07242637688558784          1.0000   
         C         C         1.0       0.4777125176784515  0.6968485501598213  0.07229725647636193          1.0000   
         H         H         1.0       0.29175639103469736           0.5188809859553807 0.9649056364105848 1.0000   
         H         H         1.0       0.3175614013191124  0.6458644242432138  0.9964521282478139 1.0000   
         H         H         1.0       0.24926855865888428           0.6499587222180476 0.01731394120363141          1.0000   
         H         H         1.0       0.22202159472282745           0.5205509648007135 0.9928187249912771 1.0000   
         H         H         1.0       0.3445863838948808  0.6730695219425178  0.946874252806702  1.0000   
         H         H         1.0       0.3363507375710378  0.7079563080703931  0.89720703919257   1.0000   
         H         H         1.0       0.3245824085041318  0.5868565106188174  0.8481839824205304 1.0000   
         H         H         1.0       0.33486724269832485           0.5508752605855209 0.9018462876042993 1.0000   
         H         H         1.0       0.3677425023762456  0.5895492975553026  0.030415943471934995         1.0000   
         H         H         1.0       0.4122497230512634  0.6373638581934922  0.05974730092473334          1.0000   
         H         H         1.0       0.4573627246681377  0.6913525235416536  0.9742198313861877 1.0000   
         H         H         1.0       0.42456881507455224           0.6353910567301767 0.9418835731126732 1.0000   
         H         H         1.0       0.3319182552868524  0.7332261280556702  0.1076396176549865 1.0000   
         H         H         1.0       0.4084049210592579  0.7175267211901232  0.09879575516328783          1.0000   
         H         H         1.0       0.39744392757187064           0.7520389300215898 0.9999704266441731 1.0000   
         H         H         1.0       0.32809839815633246           0.7702439182077014 0.005912353728415451         1.0000   
         H         H         1.0       0.5248445046908825  0.6883782197469035  0.010658299843027921         1.0000   
         H         H         1.0       0.5855417589838493  0.7378529470462611  0.0024005537056159543        1.0000   
         H         H         1.0       0.5092776715062355  0.8458441922005383  0.014827692106448617         1.0000   
         H         H         1.0       0.4534635579089391  0.803684357544133   0.026761262482314693         1.0000   
         H         H         1.0       0.4720631297883283  0.7564659213855746  0.09545000366823521          1.0000   
         H         H         1.0       0.5319078582751042  0.7397182916431748  0.1395374489264958 1.0000   
         H         H         1.0       0.5373720864286645  0.6140089317710914  0.09744556733492993          1.0000   
         H         H         1.0       0.49314679194145206           0.6338628966408109 0.05334460996962743          1.0000   
         C         C         1.0       0.7843157217620499  0.22602659451901752           0.2815618402469302 1.0000   
         C         C         1.0       0.8209532131149246  0.20425355883171206           0.2890187871086227 1.0000   
         C         C         1.0       0.8267256358827373  0.16530190633437447           0.2758542482679423 1.0000   
         C         C         1.0       0.7952473126642735  0.14280747577524142           0.261506537730626  1.0000   
         C         C         1.0       0.7595557990298364  0.16436598809539954           0.2538786412688439 1.0000   
         C         C         1.0       0.7550557169003684  0.2069775354728449  0.2629160715164528 1.0000   
         H         H         1.0       0.8436515404188438  0.22261847212663533           0.30382993148387316          1.0000   
         H         H         1.0       0.8545540250611025  0.15079873318551867           0.28279243232720863          1.0000   
         H         H         1.0       0.7324458372879032  0.14624079038779852           0.24441864360822052          1.0000   
         H         H         1.0       0.7263469195314642  0.22432222068269556           0.2564619986428672 1.0000   
         C         C         1.0       0.7384118858700899  0.0718083682090895  0.2863486199487646 1.0000   
         C         C         1.0       0.757141581509297   0.06699881006200395           0.2557325362407342 1.0000   
         C         C         1.0       0.7426444419176341  0.033011873245507105         0.23448786330714333          1.0000   
         C         C         1.0       0.7208904800554373  0.9998488693640093  0.24857916098907618          1.0000   
         C         C         1.0       0.7024656984520061  0.006085477020214336         0.2791816473231535 1.0000   
         C         C         1.0       0.709830942035245   0.04289074227148363           0.29779420391384587          1.0000   
         C         C         1.0       0.7997071778087774  0.09536632870691762           0.24746950954619898          1.0000   
         C         C         1.0       0.8336011624058355  0.06578242612498844           0.2626597755837278 1.0000   
         C         C         1.0       0.8523535517993326  0.03380673705954745           0.24522941621156544          1.0000   
         C         C         1.0       0.8788330137718776  0.003945672422944524         0.2576552851386103 1.0000   
         C         C         1.0       0.8894782544703532  0.007054964343173653         0.29047327730317435          1.0000   
         C         C         1.0       0.8735426917697506  0.04003717696497822           0.309459939446592  1.0000   
         C         C         1.0       0.8460884876175142  0.06786510077762242           0.29514570832028514          1.0000   
         C         C         1.0       0.783943071981191   0.10529404138914909           0.18558889371964848          1.0000   
         C         C         1.0       0.799092661141438   0.10172242891109559           0.15351413236091438          1.0000   
         C         C         1.0       0.8415427055445243  0.10575829571939058           0.14698214903584209          1.0000   
         C         C         1.0       0.8678682574100186  0.121982670650147   0.17253513959108324          1.0000   
         C         C         1.0       0.8520601881339697  0.12128729876269745           0.20410409079504055          1.0000   
         C         C         1.0       0.8108825763463915  0.10870267985450371           0.21142167226931796          1.0000   
         C         C         1.0       0.8644562093104572  0.091470782764452   0.11368534008940505          1.0000   
         C         C         1.0       0.8060895202343776  0.008532692256345564         0.03802199932392212          1.0000   
         C         C         1.0       0.8475565556051478  0.022015801975146222         0.034186786119128836         1.0000   
         C         C         1.0       0.8645902553869901  0.0488329167011219  0.058198901973969513         1.0000   
         C         C         1.0       0.8447867685887885  0.0558240062509684  0.08813293236991002          1.0000   
         C         C         1.0       0.805939627199366   0.0367524853492461  0.09150666256245484          1.0000   
         C         C         1.0       0.7867998617491988  0.015718413349198324         0.0666564430805549 1.0000   
         C         C         1.0       0.9040052609308673  0.06326211021423238           0.12265514293559529          1.0000   
         C         C         1.0       0.896243708474878   0.028468341084390756         0.14367948835703137          1.0000   
         C         C         1.0       0.9254718985812675  0.9987235287922605  0.14951030234753623          1.0000   
         C         C         1.0       0.9663721545868258  0.004037163135644617         0.13826168943052938          1.0000   
         C         C         1.0       0.9744130270363824  0.038829203317246895         0.11743388598667526          1.0000   
         C         C         1.0       0.942757047899861   0.06712355516884161           0.10944011554387784          1.0000   
         C         C         1.0       0.9060814506803742  0.16547983045839587           0.10269906309603567          1.0000   
         C         C         1.0       0.9064832700112682  0.20560470601830974           0.08908174996749538          1.0000   
         C         C         1.0       0.8746810260982455  0.22063242019295912           0.06968262360417272          1.0000   
         C         C         1.0       0.8410836565157832  0.1926649721594407  0.062102196169775616         1.0000   
         C         C         1.0       0.8410553445129908  0.150797984421698   0.07454879171856228          1.0000   
         C         C         1.0       0.8734487505413158  0.13673906437374422           0.09627724704894314          1.0000   
         H         H         1.0       0.7478136680329559  0.09596384169305211           0.30416064376826013          1.0000   
         H         H         1.0       0.7575526958209454  0.02521707768829362           0.21068887594546354          1.0000   
         H         H         1.0       0.71684577069699    0.9715877849942924  0.2325195187843033 1.0000   
         H         H         1.0       0.6903543900316985  0.048604135315036774         0.3191182874084337 1.0000   
         H         H         1.0       0.840910230153389   0.026725096793723487         0.2216537687537553 1.0000   
         H         H         1.0       0.8899108562169683  0.9780326092896422  0.24180500882446607          1.0000   
         H         H         1.0       0.8837038759928816  0.03944966402105245           0.33569948085465573          1.0000   
         H         H         1.0       0.8313174382820596  0.08610918413419136           0.31235925690221783          1.0000   
         H         H         1.0       0.751429685875446   0.1011460632630848  0.18945452926770828          1.0000   
         H         H         1.0       0.7741699905127173  0.09675634625341528           0.13435403932352358          1.0000   
         H         H         1.0       0.9022137930594093  0.12627745196989143           0.17029890955143176          1.0000   
         H         H         1.0       0.8746680379727607  0.12309992793282744           0.22379588100807324          1.0000   
         H         H         1.0       0.8626253455299124  0.019702353041161805         0.010665228845014418         1.0000   
         H         H         1.0       0.8936426671198798  0.06804496474107696           0.05135612710824065          1.0000   
         H         H         1.0       0.7875135326018561  0.03702439497397104           0.11405079173953811          1.0000   
         H         H         1.0       0.752747386612628   0.004355966252609367         0.06912648301952912          1.0000   
         H         H         1.0       0.8685191775937204  0.025641816583718918         0.1593159159207626 1.0000   
         H         H         1.0       0.9170944354936355  0.9680066727338066  0.1644336245767968 1.0000   
         H         H         1.0       0.003232070786979291          0.04457039186003696          0.1032520494932721 1.0000   
         H         H         1.0       0.9491729401663089  0.09204354740298532           0.08989264221829157          1.0000   
         H         H         1.0       0.930467809786441   0.15864385216509333           0.12058374973006755          1.0000   
         H         H         1.0       0.9317996205360618  0.22680926624761394           0.09656177171627091          1.0000   
         H         H         1.0       0.8132215224501824  0.20319916975008526           0.049570880161951915         1.0000   
         H         H         1.0       0.8116541139658272  0.13550360347490364           0.06903826028898472          1.0000   
         C         C         1.0       0.19894213663002092           0.19807975896551647          0.9589418649741888 1.0000   
         C         C         1.0       0.17865687134853084           0.1654789864837588 0.9417345990583106 1.0000   
         C         C         1.0       0.19468513807754975           0.124763470347888  0.9395448180934899 1.0000   
         C         C         1.0       0.23053589817760184           0.11506989000995686          0.9567352526287246 1.0000   
         C         C         1.0       0.2506566016231332  0.14758257947568124           0.9753440948613545 1.0000   
         C         C         1.0       0.23457070769871152           0.1867246672851244 0.9770520243371619 1.0000   
         H         H         1.0       0.15174270978305004           0.17420389925167806          0.9294005894672636 1.0000   
         H         H         1.0       0.17596952801333776           0.1003173212076631 0.9245443784921958 1.0000   
         H         H         1.0       0.27914186586404044           0.14368739406189604          0.9888465367185161 1.0000   
         H         H         1.0       0.2506843098331679  0.2115483958867511  0.9914877864844419 1.0000   
         C         C         1.0       0.32657799111519936           0.09024025924945647          0.9493617841424766 1.0000   
         C         C         1.0       0.29729118107764324           0.06763601033933718          0.9684711589626823 1.0000   
         C         C         1.0       0.3138322820313297  0.03871863660125585           0.9893090893710386 1.0000   
         C         C         1.0       0.35510074169507644           0.032633264087559045         0.9919797536800558 1.0000   
         C         C         1.0       0.3826485586293245  0.053134843944744034         0.970618782484204  1.0000   
         C         C         1.0       0.36789311023522386           0.0834254256942366 0.9506362415321696 1.0000   
         C         C         1.0       0.24867459269225123           0.06756434757994612          0.957328098551439  1.0000   
         C         C         1.0       0.25127022708340124           0.04035481846568568          0.9224588704216697 1.0000   
         C         C         1.0       0.2541790467034411  0.9940827064516256  0.9217843933854498 1.0000   
         C         C         1.0       0.25479824757096453           0.9722949325150798 0.8928214240455818 1.0000   
         C         C         1.0       0.25266474049860216           0.9938162407876046 0.8635320345453936 1.0000   
         C         C         1.0       0.24796105274060498           0.0372244324319975 0.8636891714947222 1.0000   
         C         C         1.0       0.25003032344469234           0.059972237858377755         0.8923862904557193 1.0000   
         C         C         1.0       0.21739890773743484           0.052065357860152914         0.015408139620436773         1.0000   
         C         C         1.0       0.19250029763890897           0.029396919318082564         0.03575440213806751          1.0000   
         C         C         1.0       0.16427832537703718           0.999179756703149  0.02253088316301945          1.0000   
         C         C         1.0       0.15763025555032648           0.000180632509091172         0.9888705334890263 1.0000   
         C         C         1.0       0.1799556618411413  0.026927047277210736         0.9689696205098087 1.0000   
         C         C         1.0       0.21598149751349807           0.04681000380295489          0.9814501650054586 1.0000   
         C         C         1.0       0.1515397164340844  0.9600318515958617  0.04672621480197981          1.0000   
         C         C         1.0       0.28006474028157713           0.9140121202818375 0.0577609411982968 1.0000   
         C         C         1.0       0.25832298362254863           0.9290951357073363 0.08510885014249728          1.0000   
         C         C         1.0       0.2170372501355363  0.9384658697590376  0.0818683622542754 1.0000   
         C         C         1.0       0.19578150470603556           0.9351344016741541 0.05272978540920092          1.0000   
         C         C         1.0       0.2173747255404773  0.9204986540294631  0.02510450525854968          1.0000   
         C         C         1.0       0.25865442081056406           0.9115567165108038 0.027297572327047652         1.0000   
         C         C         1.0       0.11461722097022493           0.9319281155984029 0.030657765852318504         1.0000   
         C         C         1.0       0.07709390661361312           0.9492650468770485 0.020997710406748266         1.0000   
         C         C         1.0       0.04499257438944919           0.9241458470932231 0.00865025987001857          1.0000   
         C         C         1.0       0.04854589957059174           0.8801684914813707 0.005148878376643573         1.0000   
         C         C         1.0       0.08790905739568165           0.8646654185829591 0.012093424535128836         1.0000   
         C         C         1.0       0.11880009725501332           0.8890695724246888 0.025467578379836063         1.0000   
         C         C         1.0       0.1191438441542747  0.9433962267364782  0.10353050174566172          1.0000   
         C         C         1.0       0.09643748042492095           0.9542082618600317 0.13074005017226886          1.0000   
         C         C         1.0       0.07815277039798928           0.9930081456111001 0.13407394624160773          1.0000   
         C         C         1.0       0.0870307701296913  0.02366636758010343           0.11136357069232326          1.0000   
         C         C         1.0       0.11052904211752453           0.015084963211388525         0.08345559160235283          1.0000   
         C         C         1.0       0.12929909494649988           0.9746915341481501 0.07951276394757667          1.0000   
         H         H         1.0       0.3171606014896218  0.11056109309380378           0.9295304902634928 1.0000   
         H         H         1.0       0.29310004525720845           0.013911157235013016         5.309856954527348e-05        1.0000   
         H         H         1.0       0.365721956048013   0.0075879332244781494        0.007623159885500552         1.0000   
         H         H         1.0       0.38610372054139114           0.09874726767007988          0.9312927312398886 1.0000   
         H         H         1.0       0.2533899063753751  0.9747853963735987  0.9433192975862853 1.0000   
         H         H         1.0       0.2538607205459493  0.9373465485617616  0.8942970155896034 1.0000   
         H         H         1.0       0.2438957820993319  0.05553676705983376           0.840091079720804  1.0000   
         H         H         1.0       0.24542538243731973           0.0947590646389404 0.8903854826277442 1.0000   
         H         H         1.0       0.2394617029005223  0.07559944709706017           0.024354429676580535         1.0000   
         H         H         1.0       0.1964644645848416  0.03369350799437956           0.061252446090624905         1.0000   
         H         H         1.0       0.13172597743645817           0.9841414647136996 0.9772718343377741 1.0000   
         H         H         1.0       0.17270762081156035           0.02955101955806838          0.9418158364561969 1.0000   
         H         H         1.0       0.27708668757166227           0.9382356333415168 0.10753971114351976          1.0000   
         H         H         1.0       0.20261566371283993           0.9532541578852756 0.1036665122482327 1.0000   
         H         H         1.0       0.1997626768917742  0.9199298181603225  0.0021234327290054183        1.0000   
         H         H         1.0       0.2764357309999916  0.9001630268924314  0.007044725162653654         1.0000   
         H         H         1.0       0.06952693529287268           0.9833105199427711 0.024449645633961677         1.0000   
         H         H         1.0       0.013471070216167556          0.9377071876289218 0.003497476035753344         1.0000   
         H         H         1.0       0.09440376378986849           0.8316904805108081 0.006969098336893964         1.0000   
         H         H         1.0       0.14788475992042757           0.8725597951603609 0.029149040486827375         1.0000   
         H         H         1.0       0.1294261571916701  0.9109405461914439  0.10347089136609953          1.0000   
         H         H         1.0       0.08913989788419781           0.9316285452309613 0.14935999563223845          1.0000   
         H         H         1.0       0.07427450561283566           0.05546577202856314          0.10949478410695984          1.0000   
         H         H         1.0       0.1123650160253607  0.03889036600886412           0.06391790390344344          1.0000   
         C         C         1.0       0.4281268153614587  0.7813064558663013  0.33238918668429146          1.0000   
         C         C         1.0       0.4365212074605224  0.8241707520304445  0.3305920768966375 1.0000   
         C         C         1.0       0.47157496363767404           0.8404280340682568 0.3126993656072089 1.0000   
         C         C         1.0       0.4959240540913007  0.8092038209589165  0.29517112434796067          1.0000   
         C         C         1.0       0.4809634887296526  0.7676074840720357  0.29386219760169424          1.0000   
         C         C         1.0       0.4489318287861435  0.7532592634012827  0.3123035989403466 1.0000   
         H         H         1.0       0.41871234728027074           0.8466170510085372 0.3452077314121443 1.0000   
         H         H         1.0       0.47876441990085705           0.8746186074568917 0.3179528460942398 1.0000   
         H         H         1.0       0.49604163661913653           0.7489545084290883 0.2761653034568373 1.0000   
         H         H         1.0       0.446164394302678   0.7195707821120184  0.3121275879163222 1.0000   
         C         C         1.0       0.5815838050776141  0.7689008380577977  0.3100002084525367 1.0000   
         C         C         1.0       0.5742588778956175  0.7834859985333837  0.2780596148294186 1.0000   
         C         C         1.0       0.6018056832524769  0.771146360221562   0.2535034781142921 1.0000   
         C         C         1.0       0.6371097815065369  0.7479405734423267  0.26155162106037044          1.0000   
         C         C         1.0       0.6429453600622808  0.7323429295262804  0.29316799444614533          1.0000   
         C         C         1.0       0.6142705796388805  0.7423514590600674  0.3171037699022075 1.0000   
         C         C         1.0       0.5364538852569684  0.8193769209072237  0.27297044575192403          1.0000   
         C         C         1.0       0.5635695909363422  0.85980613078276    0.28242406687879823          1.0000   
         C         C         1.0       0.5903780735647963  0.8751737557597037  0.25785437588612203          1.0000   
         C         C         1.0       0.611556430716444   0.9116134119198619  0.26095076700209713          1.0000   
         C         C         1.0       0.6068518149476261  0.9357081611438203  0.28832493681302157          1.0000   
         C         C         1.0       0.5872235401494943  0.9184496720564408  0.3157217744552976 1.0000   
         C         C         1.0       0.5645274237843947  0.8810642573109352  0.312884812464988  1.0000   
         C         C         1.0       0.5231268395556873  0.8037892141440095  0.2096261297190688 1.0000   
         C         C         1.0       0.5124171832785523  0.81944000114357    0.17734638911247064          1.0000   
         C         C         1.0       0.5015784691027735  0.8616416751535765  0.17363599914877836          1.0000   
         C         C         1.0       0.48675498659538685           0.8822219864374777 0.20142908121796574          1.0000   
         C         C         1.0       0.4948610172062864  0.866891819395506   0.2327588406310392 1.0000   
         C         C         1.0       0.5158979545611602  0.8276108159194623  0.2372487795710972 1.0000   
         C         C         1.0       0.5085869168793191  0.8919896077372685  0.1421047948663377 1.0000   
         C         C         1.0       0.5920421637167341  0.8518007762234857  0.06335485482155412          1.0000   
         C         C         1.0       0.5644735124473427  0.8854162630866381  0.059519155134463236         1.0000   
         C         C         1.0       0.5382219857909288  0.8970025849251844  0.08324558265631661          1.0000   
         C         C         1.0       0.5414152067818234  0.8775738858632841  0.11440766808188053          1.0000   
         C         C         1.0       0.5735163290647679  0.8506915348095339  0.12077778825774367          1.0000   
         C         C         1.0       0.5954515241829531  0.8348456105689844  0.0948456065919296 1.0000   
         C         C         1.0       0.528410707176879   0.9384823239395903  0.14973101763520852          1.0000   
         C         C         1.0       0.5572146762382938  0.9448434085606469  0.1753451129537708 1.0000   
         C         C         1.0       0.5709902453359719  0.9852889108378503  0.18463445620899227          1.0000   
         C         C         1.0       0.560430444295762   0.020072870873151905         0.16602604737835772          1.0000   
         C         C         1.0       0.5318957015801578  0.01464770111403868           0.14037991598022467          1.0000   
         C         C         1.0       0.5165088435649468  0.9740899186669896  0.13186055088328494          1.0000   
         C         C         1.0       0.4303766180844103  0.9151877833013858  0.1370441800959802 1.0000   
         C         C         1.0       0.39061381660057515           0.9115784953758295 0.12224134540386418          1.0000   
         C         C         1.0       0.38148729618301097           0.8805896938524705 0.09972401362289365          1.0000   
         C         C         1.0       0.4110849546827288  0.8520444197912393  0.08944497124552712          1.0000   
         C         C         1.0       0.4492370002603723  0.8563971349599747  0.10473829783595366          1.0000   
         C         C         1.0       0.46202012234010353           0.8896017948588524 0.12682090672020244          1.0000   
         H         H         1.0       0.5621262095055489  0.778070031404072   0.329589294912953  1.0000   
         H         H         1.0       0.5975928497352319  0.7827881699739498  0.22938992448251078          1.0000   
         H         H         1.0       0.6610100340611551  0.7428087779114563  0.24271336851376377          1.0000   
         H         H         1.0       0.6173427293392617  0.7355517510865632  0.3425256433929268 1.0000   
         H         H         1.0       0.5865925620594155  0.861534540559955   0.23435421447978338          1.0000   
         H         H         1.0       0.625247952372147   0.923473453052192   0.2397189919994856 1.0000   
         H         H         1.0       0.5859919401910307  0.9374142014471243  0.3380665204923905 1.0000   
         H         H         1.0       0.5466119820584808  0.8699077201463277  0.3336921789506002 1.0000   
         H         H         1.0       0.5393111259879866  0.7730751603167347  0.2113577795926883 1.0000   
         H         H         1.0       0.5188679469136355  0.8005125965453311  0.15442484248753297          1.0000   
         H         H         1.0       0.4744040104143026  0.9138406363080754  0.19984375012473227          1.0000   
         H         H         1.0       0.4867600351545659  0.8863480128861632  0.25318767680639115          1.0000   
         H         H         1.0       0.5617420310480987  0.9020462629425534  0.035518116219926614         1.0000   
         H         H         1.0       0.5124370995696289  0.9191583782123738  0.07752553637238971          1.0000   
         H         H         1.0       0.5858949104298349  0.8420471808468255  0.1456367672140386 1.0000   
         H         H         1.0       0.6169127101397852  0.807213392240288   0.09887350479512101          1.0000   
         H         H         1.0       0.5662477354794315  0.9190404004583249  0.190872832374069  1.0000   
         H         H         1.0       0.5921625101338833  0.9900183016116887  0.20438410592716535          1.0000   
         H         H         1.0       0.5200079681349702  0.04013464720453313           0.12450704321259146          1.0000   
         H         H         1.0       0.4973356244618267  0.9703241899133483  0.11234782668131238          1.0000   
         H         H         1.0       0.4360773867304881  0.9422341164804846  0.1547476997320152 1.0000   
         H         H         1.0       0.37234767547565717           0.9362202454902682 0.13046216554772094          1.0000   
         H         H         1.0       0.4042371570792815  0.8285806255897937  0.07089145364558687          1.0000   
         H         H         1.0       0.4715829119847321  0.8337679193847568  0.09831423027874157          1.0000   
         C         C         1.0       0.47612751317267077           0.10352501796575626          0.9876450927620266 1.0000   
         C         C         1.0       0.5029272777667682  0.10826692029508628           0.9612373985974955 1.0000   
         C         C         1.0       0.5148955825922749  0.14745540493614137           0.9505398257145456 1.0000   
         C         C         1.0       0.5036456447267297  0.18353253839501554           0.9697852412800732 1.0000   
         C         C         1.0       0.47332222892235604           0.18008350012526836          0.9941375921509517 1.0000   
         C         C         1.0       0.461308404892074   0.14001215073956394           0.0039656762112771915        1.0000   
         H         H         1.0       0.5093963328075954  0.0812632394050635  0.9460349978477235 1.0000   
         H         H         1.0       0.5409986064601298  0.15123446002826407           0.9313973964835864 1.0000   
         H         H         1.0       0.4662712502916985  0.205550942518416   0.010410993538083854         1.0000   
         H         H         1.0       0.4392105143835508  0.13245576231670278           0.024247563438478104         1.0000   
         C         C         1.0       0.4618647557754927  0.2753748860127644  0.9679621441124268 1.0000   
         C         C         1.0       0.5028216023595492  0.2684253561603788  0.9766384694589623 1.0000   
         C         C         1.0       0.5237050059547613  0.30156924429958815           0.9935726727870455 1.0000   
         C         C         1.0       0.503893552856752   0.339853460763153   0.0014926737258704748        1.0000   
         C         C         1.0       0.4638102514505618  0.3453502968496784  0.99165246295527   1.0000   
         C         C         1.0       0.44172375923671797           0.31336842174477547          0.9764243281951239 1.0000   
         C         C         1.0       0.5278602023415638  0.2284879471811485  0.9633391876100568 1.0000   
         C         C         1.0       0.5339958041647257  0.24056431962582137           0.9261433226230396 1.0000   
         C         C         1.0       0.5645798577522447  0.2695747027766052  0.9174437067534759 1.0000   
         C         C         1.0       0.5696736644762483  0.28618615843424583           0.8867754417733543 1.0000   
         C         C         1.0       0.5432474182731876  0.27025599989100546           0.8630785397751953 1.0000   
         C         C         1.0       0.5118210249244409  0.24186237191938217           0.8697930965040288 1.0000   
         C         C         1.0       0.5050394620026514  0.22754308030707662           0.9015058450142809 1.0000   
         C         C         1.0       0.5685315620611607  0.2133187071441613  0.018165552720737006         1.0000   
         C         C         1.0       0.6024167873324728  0.200062815429006   0.036800842696848045         1.0000   
         C         C         1.0       0.6370031152277349  0.18401135177763386           0.021298995160944467         1.0000   
         C         C         1.0       0.6389356430404791  0.18908109033225048           0.9877302201637043 1.0000   
         C         C         1.0       0.6050054288905355  0.2005621215181897  0.9698719522246722 1.0000   
         C         C         1.0       0.5683448573216003  0.21394206326282814           0.9840851963103376 1.0000   
         C         C         1.0       0.6759848251671361  0.16403076581440662           0.04142409287216325          1.0000   
         C         C         1.0       0.7281216433471165  0.29654551261816686           0.055219369633723946         1.0000   
         C         C         1.0       0.702951481185489   0.2762845530071109  0.07844914886423554          1.0000   
         C         C         1.0       0.6941097798692607  0.23438438563758754           0.07583111665845359          1.0000   
         C         C         1.0       0.701474542517449   0.20912886724902516           0.047867550372659766         1.0000   
         C         C         1.0       0.7269363488907732  0.22886541637258254           0.02435694791717441          1.0000   
         C         C         1.0       0.7384847181262455  0.2722661058410969  0.02730956888941955          1.0000   
         C         C         1.0       0.6996010259336006  0.12692823045848864           0.022416539219154357         1.0000   
         C         C         1.0       0.6783583857736019  0.09423182905108458           0.005084400059666594         1.0000   
         C         C         1.0       0.700181046750782   0.06021391935161799           0.9943527539802031 1.0000   
         C         C         1.0       0.7442702328864346  0.06250888035098363           0.9936314072272809 1.0000   
         C         C         1.0       0.7639948862721936  0.09504257898416925           0.010398863014951187         1.0000   
         C         C         1.0       0.7430738160993102  0.12779005454605116           0.021367277777140346         1.0000   
         C         C         1.0       0.6904124985186361  0.13839715812671582           0.10286051076341975          1.0000   
         C         C         1.0       0.6789028893678115  0.11885119240745214           0.13055786065508518          1.0000   
         C         C         1.0       0.6440568826239808  0.091843671259045   0.1321864435793551 1.0000   
         C         C         1.0       0.6185638313013554  0.08981898839466164           0.10419893454347975          1.0000   
         C         C         1.0       0.6293178248898347  0.1146040134163143  0.07668736669238119          1.0000   
         C         C         1.0       0.665805823474283   0.1368710216041059  0.07471588049802368          1.0000   
         H         H         1.0       0.44404318113543695           0.2533095014926303 0.9549023173313318 1.0000   
         H         H         1.0       0.5554267669192975  0.29554929547096237           0.0007198398571184317        1.0000   
         H         H         1.0       0.5168844968349434  0.36653836459383465           0.015329080456736532         1.0000   
         H         H         1.0       0.4101583286878813  0.3168955790675538  0.9650633934637494 1.0000   
         H         H         1.0       0.5898929630463068  0.27476787671796166           0.9366516732287781 1.0000   
         H         H         1.0       0.5961608522582972  0.3062166420761927  0.8830801479249785 1.0000   
         H         H         1.0       0.4909701473829755  0.22928729536904394           0.8514392020103612 1.0000   
         H         H         1.0       0.4778935257739594  0.20721842206704047           0.9059435174811544 1.0000   
         H         H         1.0       0.5447661327539375  0.2286309875500048  0.03113663815164974          1.0000   
         H         H         1.0       0.6038149165956616  0.20242897255649686           0.06376846032236534          1.0000   
         H         H         1.0       0.6652100369258357  0.17717700445742104           0.9745234770148825 1.0000   
         H         H         1.0       0.6090150074752683  0.20166809059632532           0.9436175478871415 1.0000   
         H         H         1.0       0.6910498387843548  0.2900827214215337  0.10098350911168034          1.0000   
         H         H         1.0       0.6709007566790426  0.22433243314453347           0.09283478464342212          1.0000   
         H         H         1.0       0.7354018656797577  0.21264180915231967           0.0032606456739867618        1.0000   
         H         H         1.0       0.7577675671651433  0.2873411269501964  0.008218498974071656         1.0000   
         H         H         1.0       0.6461601202230888  0.08883989358666562           0.002246073621585909         1.0000   
         H         H         1.0       0.6851857905400317  0.030757374756854527         0.9887042949119054 1.0000   
         H         H         1.0       0.7979484567282796  0.09324572077857149           0.010684639850633504         1.0000   
         H         H         1.0       0.7624642228905117  0.15103694620955638           0.034313282278102  1.0000   
         H         H         1.0       0.721385129456416   0.15302665569021787           0.10332988376840917          1.0000   
         H         H         1.0       0.6994131075088782  0.12341630848054985           0.15111033990401926          1.0000   
         H         H         1.0       0.5928681005047748  0.06618161167348888           0.10048979768491653          1.0000   
         H         H         1.0       0.6025887643133426  0.11475743458069368           0.05763967326144167          1.0000   
         C         C         1.0       0.5822254533403618  0.0641925427559214  0.17240468009079649          1.0000   
         C         C         1.0       0.6288908658905918  0.06828494364283046           0.16324379139173553          1.0000   
         H         H         1.0       0.563667131365891   0.08830728169843899           0.1574808952019171 1.0000   
         H         H         1.0       0.5813310426883731  0.07212758994955899           0.19863479135862064          1.0000   
         H         H         1.0       0.6476417664449774  0.03896254447131655           0.1664344736205884 1.0000   
         H         H         1.0       0.6424787901499346  0.08789430687742421           0.18351284049075053          1.0000   
         C         C         1.0       0.42702777700727756           0.037942392533203  0.9689007579555566 1.0000   
         C         C         1.0       0.4575946816950716  0.058533061955227554         0.9942479769701559 1.0000   
         H         H         1.0       0.4346439744847057  0.04302242729311083           0.9426039501122851 1.0000   
         H         H         1.0       0.42940225634998125           0.003052764305385258         0.9714092143178481 1.0000   
         H         H         1.0       0.4848623739069278  0.03841289199307606           0.9953286228791581 1.0000   
         H         H         1.0       0.4465873021734461  0.053270547897063154         0.019921681349400543         1.0000   
         C         C         1.0       0.32822110510421953           0.9093542889622404 0.05991073225716525          1.0000   
         C         C         1.0       0.3382083689705678  0.8753952452214381  0.08629378548114514          1.0000   
         H         H         1.0       0.34060397196593095           0.9040777360732386 0.03508417574987993          1.0000   
         H         H         1.0       0.33970058936653835           0.941267686055938  0.06499415370028253          1.0000   
         H         H         1.0       0.31689697039504344           0.8755720652548451 0.10822336275794657          1.0000   
         H         H         1.0       0.3380203770940845  0.8424973963503984  0.0734581191306468 1.0000   
         C         C         1.0       0.6757762126579926  0.9706646870790534  0.2930776837124631 1.0000   
         C         C         1.0       0.6295490037690548  0.9781824538081276  0.29108045541501704          1.0000   
         H         H         1.0       0.6834761636903264  0.9414275706671581  0.27924760575145274          1.0000   
         H         H         1.0       0.6834415047735684  0.9627695907826014  0.31943101471057034          1.0000   
         H         H         1.0       0.6216738931765952  0.9970289215976109  0.26846494354552897          1.0000   
         H         H         1.0       0.6232585457946982  0.9994998558173038  0.31385204767615504          1.0000   
         C         C         1.0       0.781865517228083   0.9899430632662363  0.009038119447846826         1.0000   
         C         C         1.0       0.7680395314559301  0.02349244434847105           0.9819734973966318 1.0000   
         H         H         1.0       0.7962599228244623  0.9612135021720875  0.9986714914902921 1.0000   
         H         H         1.0       0.7526667601390716  0.976227261023475   0.020990785210210694         1.0000   
         H         H         1.0       0.7532867539208825  0.007708814447285217         0.9604312559380688 1.0000   
         H         H         1.0       0.7955013822034667  0.0377420357302469  0.971256253124716  1.0000   
         C         C         1.0       0.0018782627204667612         0.976863805717751  0.15059497503206207          1.0000   
         C         C         1.0       0.04649086714526879           0.9976359439394673 0.1609209121735437 1.0000   
         H         H         1.0       0.9912216575671517  0.9618249232681273  0.1749374833732194 1.0000   
         H         H         1.0       0.009125869860976408          0.9512280229448743 0.13207623003172056          1.0000   
         H         H         1.0       0.05864001216224347           0.9803826104081995 0.1838865956611492 1.0000   
         H         H         1.0       0.04163171529224395           0.03046672736291397          0.16969379249063235          1.0000   
         C         C         1.0       0.43449660183248795           0.4113398615108525 0.9617405869700111 1.0000   
         C         C         1.0       0.4467347958392068  0.38983648239784524           0.9940871761159749 1.0000   
         H         H         1.0       0.46122784728605865           0.4101849732479216 0.9445835292918455 1.0000   
         H         H         1.0       0.40909082401872127           0.38780211152527766          0.9515077449598388 1.0000   
         H         H         1.0       0.42041149494053504           0.3892520205319995 0.010977902273622941         1.0000   
         H         H         1.0       0.46626551462685717           0.4136798387098504 0.006199826994569557         1.0000   
         C         C         1.0       0.6169249197586877  0.8362519029182943  0.033772294806796645         1.0000   
         C         C         1.0       0.5899997805461502  0.8245653981906549  0.0025713002167864207        1.0000   
         H         H         1.0       0.6449411402873251  0.8562055683298179  0.028194826081030865         1.0000   
         H         H         1.0       0.6269920045277275  0.8049482319541554  0.04315684629751628          1.0000   
         H         H         1.0       0.6124644642583423  0.8097303836344479  0.9847723153172637 1.0000   
         H         H         1.0       0.5816203788018035  0.8539622809255456  0.9910109345866598 1.0000   
         C         C         1.0       0.7129461087798482  0.3770003454303891  0.04467192253168383          1.0000   
         C         C         1.0       0.7425695937612445  0.34410967562578576           0.06019891259992211          1.0000   
         H         H         1.0       0.6797181115134752  0.3656781246660689  0.04974380079445664          1.0000   
         H         H         1.0       0.7166075257808979  0.38097922962211284           0.0172902993489652 1.0000   
         H         H         1.0       0.7445077599879648  0.34892724458839375           0.08805240756470985          1.0000   
         H         H         1.0       0.7757045792490194  0.3487786611445932  0.052672663946209265         1.0000   
         C         C         1.0       0.6734066111326755  0.6587744322133346  0.3030357552564811 1.0000   
         C         C         1.0       0.6835060184346526  0.7067318714931287  0.30190646052507536          1.0000   
         H         H         1.0       0.6416316575618034  0.6498245345061713  0.29235330061345993          1.0000   
         H         H         1.0       0.6657927436254342  0.6487008469477007  0.33020402058366943          1.0000   
         H         H         1.0       0.7095102395254161  0.7166336535741149  0.2848118144486763 1.0000   
         H         H         1.0       0.6927158935837626  0.7206548264481819  0.3251535798687292 1.0000   
         C         C         1.0       0.6160974624854433  0.6800003548406786  0.12498872747172635          1.0000   
         C         C         1.0       0.5742761397839046  0.6638981565456953  0.14192037909163968          1.0000   
         H         H         1.0       0.6306557617860146  0.7092208477416333  0.13746493427382456          1.0000   
         H         H         1.0       0.6120218825879379  0.6892132977914475  0.09888915814557346          1.0000   
         H         H         1.0       0.5681367347923488  0.6811957378883755  0.166197302003738  1.0000   
         H         H         1.0       0.5717568431455177  0.6291735529534221  0.14740407292760474          1.0000   
         C         C         1.0       0.16536144763807545           0.2524608090221373 0.9930015135407412 1.0000   
         C         C         1.0       0.18701251549323583           0.24431222203721248          0.9609192951487435 1.0000   
         H         H         1.0       0.18599204643251666           0.25191391837955357          0.013651891431562202         1.0000   
         H         H         1.0       0.14476406675807016           0.22448603038262285          0.9985129503046023 1.0000   
         H         H         1.0       0.21508333609420008           0.26471953767812617          0.9537756562006293 1.0000   
         H         H         1.0       0.1630332838674328  0.24842539297804575           0.9417921436089365 1.0000   
         C         C         1.0       0.8579571775313714  0.2967249995156906  0.077028243437121  1.0000   
         C         C         1.0       0.8755318348634801  0.2637385055594422  0.0532236044372083 1.0000   
         H         H         1.0       0.8237060165445798  0.29398219445981616           0.07394170415590494          1.0000   
         H         H         1.0       0.8645045688374273  0.28987812389525647           0.10324003311132911          1.0000   
         H         H         1.0       0.9074971962852484  0.2728005707080987  0.04776753454818397          1.0000   
         H         H         1.0       0.8595832331914348  0.26172687250784715           0.027832757327734905         1.0000   
         C         C         1.0       0.15119833671105082           0.5863879147203365 0.010401510744808329         1.0000   
         C         C         1.0       0.19154370496452602           0.5877054314650217 0.0305085278501549 1.0000   
         H         H         1.0       0.12737902209419716           0.6032641921093325 0.026181313908848924         1.0000   
         H         H         1.0       0.15670480736436937           0.6059354525598174 0.9865564071961553 1.0000   
         H         H         1.0       0.19260048522976253           0.5652950183568982 0.05165145070219349          1.0000   
         H         H         1.0       0.1943790538578624  0.6171586627457569  0.04475810582035451          1.0000   
         C         C         1.0       0.826659389591452   0.6014889903560898  0.9707078831878073 1.0000   
         C         C         1.0       0.8168050016912782  0.6377766765755448  0.9956539217253471 1.0000   
         H         H         1.0       0.8423063978853654  0.6176267763370783  0.9497334807230051 1.0000   
         H         H         1.0       0.7971219736250335  0.5883694131234352  0.9626801957766926 1.0000   
         H         H         1.0       0.7958601040151401  0.6621545557340447  0.9853506075692186 1.0000   
         H         H         1.0       0.8465792227698598  0.6565113616465075  0.0004775528902334347        1.0000   
         C         C         1.0       0.9206740332895178  0.9324262343839904  0.29996649037591566          1.0000   
         C         C         1.0       0.9261815040543363  0.9811163749911338  0.30475826476291623          1.0000   
         H         H         1.0       0.8941604860855293  0.925071775158371   0.2831169050580355 1.0000   
         H         H         1.0       0.9070790065505797  0.9162509884822914  0.3220194189905086 1.0000   
         H         H         1.0       0.932799705915001   0.9916295293434837  0.32979046792516714          1.0000   
         H         H         1.0       0.9541298294202253  0.9893416546749664  0.2909742378427297 1.0000   
         C         C         1.0       0.9802656053350093  0.8393065893377707  0.025512574913387875         1.0000   
         C         C         1.0       0.008962067785961203          0.8518668064163655 0.9958594566154683 1.0000   
         H         H         1.0       0.9520069912628818  0.8214259420290889  0.020601083291099442         1.0000   
         H         H         1.0       0.970017529471482   0.8712723414390855  0.03547219930224142          1.0000   
         H         H         1.0       0.9853200566641521  0.8654878917767054  0.9782574109533563 1.0000   
         H         H         1.0       0.02003024425179811           0.8234091203862147 0.9818519763318724 1.0000   
         C         C         1.0       0.27620563587803854           0.755994673392597  0.061472960518308195         1.0000   
         C         C         1.0       0.2625198859365315  0.793268543200069   0.08402435191807099          1.0000   
         H         H         1.0       0.2553334163782439  0.7518806285301859  0.03962946190470606          1.0000   
         H         H         1.0       0.2678679549505667  0.7271815075432996  0.07404805049841541          1.0000   
         H         H         1.0       0.2867436750747742  0.7972839119139329  0.10571717418520461          1.0000   
         H         H         1.0       0.2634543729072403  0.8242079351886027  0.06933354249563534          1.0000   
         C         C         1.0       0.979170885973846   0.6579643978441049  0.28403551069659116          1.0000   
         C         C         1.0       0.9311574596411986  0.6666052820833502  0.28578754811496043          1.0000   
         H         H         1.0       0.9868674876026523  0.6423318155561919  0.2593342335617637 1.0000   
         H         H         1.0       0.98954579198508    0.637555098468327   0.30465652404513077          1.0000   
         H         H         1.0       0.9217156743895748  0.6988861661204118  0.27726336487062936          1.0000   
         H         H         1.0       0.9231855125016178  0.6683641609582602  0.31079326247376443          1.0000   
         C         C         1.0       0.013582930230340962          0.5991888819971597 0.15581612772032438          1.0000   
         C         C         1.0       0.9673755780686862  0.5929418488002458  0.14523597222446968          1.0000   
         H         H         1.0       0.03012056404366338           0.5719019663416643 0.1454079469028859 1.0000   
         H         H         1.0       0.01705019599172064           0.5967051434353445 0.18454994381661696          1.0000   
         H         H         1.0       0.9498802742633969  0.6231495963063293  0.14106547296860344          1.0000   
         H         H         1.0       0.9548374792028282  0.579406822852657   0.16642227654147979          1.0000   
         C         C         1.0       0.08357066003922467           0.36867931269143533          0.8300789341574568 1.0000   
         C         C         1.0       0.0803918527237066  0.31892099593618006           0.8227139284645157 1.0000   
         H         H         1.0       0.055359908238068176          0.38583197529932933          0.8189298575399984 1.0000   
         H         H         1.0       0.11033349320132416           0.38143733161483695          0.8165312560508319 1.0000   
         H         H         1.0       0.05102558734523469           0.3041470748663589 0.83442002542062   1.0000   
         H         H         1.0       0.10874681383820521           0.30336858068416767          0.8339107498374702 1.0000   
         C         C         1.0       0.20073293148223056           0.880976450485814  0.36980782269981954          1.0000   
         C         C         1.0       0.20753583300038372           0.8950317799330295 0.33321210653926236          1.0000   
         H         H         1.0       0.21415561349929108           0.8485078039157148 0.3758416934829977 1.0000   
         H         H         1.0       0.21631210097904757           0.9023204179725939 0.3870447546986714 1.0000   
         H         H         1.0       0.23856558384753093           0.8891760545916514 0.32419428020506463          1.0000   
         H         H         1.0       0.20553323647512778           0.9291476667547269 0.3310455376218695 1.0000   
         C         C         1.0       0.9830964510957999  0.9943175267767662  0.6375701734149155 1.0000   
         C         C         1.0       0.9766800448668689  0.022849789412495502         0.6077205667446673 1.0000   
         H         H         1.0       0.9523006322829295  0.9865413954027094  0.6486192552688869 1.0000   
         H         H         1.0       0.0013106052679106028         0.008024493658288499         0.6571809386765249 1.0000   
         H         H         1.0       0.9562930755911556  0.007430262069688886         0.5896587484165223 1.0000   
         H         H         1.0       0.007424574955892993          0.02403329827690189          0.5942553935151688 1.0000   
         C         C         1.0       0.2980558030578659  0.9686896797981273  0.8145112902411987 1.0000   
         C         C         1.0       0.2553541091805276  0.9691285845740033  0.8295074414198772 1.0000   
         H         H         1.0       0.30759810110318486           0.9367888649041985 0.8097652141990654 1.0000   
         H         H         1.0       0.32185409099261747           0.9732798268116869 0.8346206893864472 1.0000   
         H         H         1.0       0.24487750997474125           0.9381450655774413 0.8362919682869898 1.0000   
         H         H         1.0       0.23282854546817344           0.9799234272036516 0.811515766328442  1.0000   
         C         C         1.0       0.12660450294530687           0.06296177655473309          0.6696164171529685 1.0000   
         C         C         1.0       0.10509674169769366           0.09180421948677688          0.6445060714434929 1.0000   
         H         H         1.0       0.1260014410914288  0.030257910526562747         0.6592347979573776 1.0000   
         H         H         1.0       0.10809864578363049           0.060991038980910954         0.6940885655877347 1.0000   
         H         H         1.0       0.07617184036418533           0.07828337044658185          0.6361340726533011 1.0000   
         H         H         1.0       0.12414990550881876           0.09785773217532426          0.6225171806747165 1.0000   
         C         C         1.0       0.29875155570996453           0.9251311858289812 0.5438582705272904 1.0000   
         C         C         1.0       0.2752058742372977  0.9183857651333622  0.5760669625011965 1.0000   
         H         H         1.0       0.27658507598585425           0.9433900914305551 0.5309280193516838 1.0000   
         H         H         1.0       0.30239404543011017           0.89310771853194   0.5334457839233574 1.0000   
         H         H         1.0       0.2929991417004931  0.8958073573046932  0.5935104655451903 1.0000   
         H         H         1.0       0.27903418870831714           0.947941184791404  0.5909929572546891 1.0000   
         C         C         1.0       0.7372990682774421  0.27233445541038276           0.3210431449885844 1.0000   
         C         C         1.0       0.7744800520246533  0.2697916966675845  0.29840322244975565          1.0000   
         H         H         1.0       0.7059483246283371  0.2720673141913297  0.30928827957654337          1.0000   
         H         H         1.0       0.7390944267200233  0.3046029698894405  0.33069153440381377          1.0000   
         H         H         1.0       0.8017671369208899  0.27864110728785385           0.31250569826538216          1.0000   
         H         H         1.0       0.7726857524742878  0.29550689302697974           0.2785522632784516 1.0000   
         C         C         1.0       0.8935114160150698  0.9963774450852287  0.4268199059124589 1.0000   
         C         C         1.0       0.906673532663994   0.044721672661508095         0.4268740704265747 1.0000   
         H         H         1.0       0.8739192925330221  0.9925517438736934  0.40409403826473483          1.0000   
         H         H         1.0       0.8712231483629382  0.9893701186457363  0.44661611712596294          1.0000   
         H         H         1.0       0.9280572711559307  0.05365901000005536           0.4457422468301281 1.0000   
         H         H         1.0       0.9245923481582615  0.05092564843545326           0.40346029207433537          1.0000   
         C         C         1.0       0.7198302278344333  0.23351801739087683           0.6678241066706567 1.0000   
         C         C         1.0       0.7617851815455651  0.25529441246124523           0.6795031856720437 1.0000   
         H         H         1.0       0.694343298140862   0.25003446247290356           0.6811323412546934 1.0000   
         H         H         1.0       0.7191512460499808  0.19889311566563522           0.6747140603773324 1.0000   
         H         H         1.0       0.7601403639671901  0.2890635215312499  0.6749464923135593 1.0000   
         H         H         1.0       0.7636502356566254  0.25439708556271634           0.7078156091310693 1.0000   
         C         C         1.0       0.4721197127061922  0.21066228269080947           0.5320997190563665 1.0000   
         C         C         1.0       0.4996812979313154  0.2443542046872173  0.5512581776794987 1.0000   
         H         H         1.0       0.48449525063162613           0.20833001497239398          0.505256243101711  1.0000   
         H         H         1.0       0.4385789916679416  0.22356445189811625           0.5305673501236084 1.0000   
         H         H         1.0       0.4918509982117765  0.2427374584407462  0.5771743048534014 1.0000   
         H         H         1.0       0.48755625082092147           0.27442200096134944          0.5444030761628909 1.0000   
         C         C         1.0       0.5373283771588264  0.33282037200395437           0.8232195206274248 1.0000   
         C         C         1.0       0.5493059850393992  0.2864846635974948  0.8291058583683327 1.0000   
         H         H         1.0       0.5586448574940139  0.35455721299047716           0.8364031591014814 1.0000   
         H         H         1.0       0.5064646921258135  0.3404313326411938  0.8351970147682991 1.0000   
         H         H         1.0       0.5812248594828826  0.27898878152294637           0.8208541467216282 1.0000   
         H         H         1.0       0.5314655670330923  0.26484112349199124           0.8112168540219495 1.0000   
         C         C         1.0       0.439934007106603   0.23828117054274037           0.658654961422425  1.0000   
         C         C         1.0       0.41959943793134163           0.2342203080041984 0.6923059085771969 1.0000   
         H         H         1.0       0.4174016380417833  0.24267183796646913           0.638946077311221  1.0000   
         H         H         1.0       0.45801256355188336           0.20867228846984795          0.6532784734272081 1.0000   
         H         H         1.0       0.4426908104228022  0.233742218707179   0.713759309811264  1.0000   
         H         H         1.0       0.4018691673730207  0.26526104722085214           0.6982169689260929 1.0000   
         C         C         1.0       0.7200926854428312  0.45038283292638764           0.470420158204027  1.0000   
         C         C         1.0       0.7396063197175666  0.41051245231875816           0.45794571541693985          1.0000   
         H         H         1.0       0.6898892690892778  0.45426996593754687           0.45814342591333546          1.0000   
         H         H         1.0       0.7389445029587605  0.47971634794519263           0.4657625967965289 1.0000   
         H         H         1.0       0.7742156934941343  0.4172570365607327  0.45956729089875475          1.0000   
         H         H         1.0       0.7305663526949161  0.4079217907641455  0.4304098041499469 1.0000   
         C         C         1.0       0.4017335846591794  0.7746660489911152  0.3938082674721719 1.0000   
         C         C         1.0       0.3953212945734338  0.7614073240253936  0.35813834220357993          1.0000   
         H         H         1.0       0.3866199390205585  0.8053247433260718  0.39529508461587526          1.0000   
         H         H         1.0       0.3790958994315346  0.7537905804171843  0.4107339988741272 1.0000   
         H         H         1.0       0.3624259326012925  0.7664561844151218  0.353009748000054  1.0000   
         H         H         1.0       0.397654176005218   0.7274416992513024  0.35566277767238164          1.0000   
         C         C         1.0       0.680964068873705   0.9307939021564818  0.4131129535226594 1.0000   
         C         C         1.0       0.6540656775447728  0.9709072400710854  0.4122957902287209 1.0000   
         H         H         1.0       0.7072007946169403  0.9364284755866249  0.4320759842152755 1.0000   
         H         H         1.0       0.699131029595262   0.9276665282290556  0.388635178570422  1.0000   
         H         H         1.0       0.630410839139008   0.9687808394461346  0.43297203906827053          1.0000   
         H         H         1.0       0.6329011254156213  0.9699880023405982  0.39030258486499364          1.0000   
         C         C         1.0       0.5889930775597176  0.9329730185927193  0.6590917612157352 1.0000   
         C         C         1.0       0.59389616126011    0.9747950349513349  0.6410120950248653 1.0000   
         H         H         1.0       0.5691367033907487  0.9358982603561313  0.680956803716826  1.0000   
         H         H         1.0       0.6170767166922562  0.9203232589986636  0.6695756079194181 1.0000   
         H         H         1.0       0.6177273385593727  0.973533664448631   0.6212984810442382 1.0000   
         H         H         1.0       0.6055708922749696  0.9963210372377972  0.6591012636438464 1.0000   
         C         C         1.0       0.6383098140576074  0.655153241096427   0.6463491335582312 1.0000   
         C         C         1.0       0.6640508496226232  0.6379880981266017  0.6176490618111268 1.0000   
         H         H         1.0       0.6620157436901316  0.6654016633449901  0.6643553094777469 1.0000   
         H         H         1.0       0.6197689086217233  0.6263594370485165  0.6532471361391947 1.0000   
         H         H         1.0       0.6930395938344852  0.6601926640257306  0.613990326104082  1.0000   
         H         H         1.0       0.64470447408587    0.640558116222884   0.5955768178865039 1.0000   
         C         C         1.0       0.2858727744744499  0.6692930547816118  0.8195389427557245 1.0000   
         C         C         1.0       0.3287236446863807  0.6730161820308252  0.8360855292278568 1.0000   
         H         H         1.0       0.27131643877857564           0.7025185133735476 0.8172577132404457 1.0000   
         H         H         1.0       0.26449667934400556           0.6511772719716523 0.8372616127629854 1.0000   
         H         H         1.0       0.33513848905084015           0.7073787104872843 0.8407736422348628 1.0000   
         H         H         1.0       0.354107110783558   0.6649671836596346  0.8213093714435795 1.0000   
         C         C         1.0       0.037834455783854234          0.7261552552116588 0.6516006904374525 1.0000   
         C         C         1.0       0.030200784190186975          0.6846346460245537 0.6320306513798035 1.0000   
         H         H         1.0       0.05836678230995314           0.7175226449616191 0.6721135627534094 1.0000   
         H         H         1.0       0.006730247829688008          0.7336846256293681 0.6621763438774737 1.0000   
         H         H         1.0       0.010024961871698101          0.6896984650271447 0.6105222001065217 1.0000   
         H         H         1.0       0.012808539416128804          0.660508884919049  0.6486916894550294 1.0000   
         C         C         1.0       0.4833860246872198  0.5896228200261013  0.6620467044876359 1.0000   
         C         C         1.0       0.5032608889774909  0.5587237441347995  0.6367696079931284 1.0000   
         H         H         1.0       0.4856998285673868  0.6211193018742353  0.651293600374087  1.0000   
         H         H         1.0       0.5013053552114889  0.5919017510819532  0.6843287568831041 1.0000   
         H         H         1.0       0.48182699027573866           0.5574625622803898 0.6132316741617707 1.0000   
         H         H         1.0       0.5329299401263052  0.5700177554234157  0.6278580342424397 1.0000   
         C         C         1.0       0.325240670230276   0.7337184780404294  0.5455139662090297 1.0000   
         C         C         1.0       0.34401433461229464           0.7419397937946246 0.5814055266828053 1.0000   
         H         H         1.0       0.3480118144170308  0.715364075770953   0.5324033228206759 1.0000   
         H         H         1.0       0.3238018273852832  0.7653417929219638  0.5318013609210636 1.0000   
         H         H         1.0       0.32751531895181096           0.7733391404010089 0.5912402677942142 1.0000   
         H         H         1.0       0.3348929901940102  0.7143764556432007  0.5969576054787956 1.0000   
         C         C         1.0       0.1805605160869657  0.41588301881137124           0.6470367756997293 1.0000   
         C         C         1.0       0.21136358547134307           0.4132065364949889 0.6749610754522875 1.0000   
         H         H         1.0       0.19808616438484902           0.42153203821772667          0.6237714562304111 1.0000   
         H         H         1.0       0.16383262310439353           0.4465425564782654 0.6514450575763134 1.0000   
         H         H         1.0       0.19703212420105476           0.39913209667087024          0.6989369402978942 1.0000   
         H         H         1.0       0.23334872018632377           0.3891778527662724 0.6661605922829656 1.0000   
         C         C         1.0       0.8622880095141979  0.3765621452680936  0.32333298547756073          1.0000   
         C         C         1.0       0.821702799074559   0.374773299058739   0.3028114754151085 1.0000   
         H         H         1.0       0.8888237096912562  0.3808904987058882  0.3079558489545733 1.0000   
         H         H         1.0       0.8668260442354893  0.3444300775401506  0.3353849060326976 1.0000   
         H         H         1.0       0.795604044083338   0.3690814720882224  0.3209463575564194 1.0000   
         H         H         1.0       0.8227810152849623  0.3470287912883949  0.2863995424714296 1.0000   
         C         C         1.0       0.7001544711751021  0.6079765554240572  0.43998861315124504          1.0000   
         C         C         1.0       0.708915127985451   0.6542559266639149  0.4300055236652507 1.0000   
         H         H         1.0       0.6755467589051469  0.593945257064673   0.42312295272078093          1.0000   
         H         H         1.0       0.689174712839039   0.6043469826532466  0.46484881053136945          1.0000   
         H         H         1.0       0.7385810538580604  0.6653503996021614  0.44151288017395807          1.0000   
         H         H         1.0       0.7117026263798689  0.6530828829569355  0.4035174990016003 1.0000   
         C         C         1.0       0.8998605743695789  0.40748370430345954           0.6675678718765802 1.0000   
         C         C         1.0       0.8576029594433743  0.3870106392812811  0.6782670634145457 1.0000   
         H         H         1.0       0.92640156784527    0.39165412740066996           0.680319230230024  1.0000   
         H         H         1.0       0.8982963183929584  0.44067895627403036           0.675355832882981  1.0000   
         H         H         1.0       0.858381527237895   0.35082031947293    0.675132072011013  1.0000   
         H         H         1.0       0.8571977751861656  0.3842060028690489  0.7042367408084588 1.0000   
         C         C         1.0       0.9253390549137029  0.7264585705846253  0.3979927760684025 1.0000   
         C         C         1.0       0.9475329541156575  0.6824625667580715  0.39308392672509146          1.0000   
         H         H         1.0       0.90221717630222    0.7227904264644192  0.41781459905124974          1.0000   
         H         H         1.0       0.9047164018478017  0.7351008034511648  0.37624304985318924          1.0000   
         H         H         1.0       0.9748384849800298  0.6808532626654029  0.41098463981605504          1.0000   
         H         H         1.0       0.9635687642380051  0.6830372895570003  0.3684158962613803 1.0000   
         C         C         1.0       0.14634168154109067           0.4542103422624431 0.5199001178884087 1.0000   
         C         C         1.0       0.12496800450856904           0.4146728857613773 0.5399241769457885 1.0000   
         H         H         1.0       0.13340280736353297           0.45766864277900265          0.4949424729234451 1.0000   
         H         H         1.0       0.17922291119052228           0.4433424882238721 0.5134125982853205 1.0000   
         H         H         1.0       0.1395235744462424  0.41455683917745256           0.5644863124597526 1.0000   
         H         H         1.0       0.13846664252903404           0.38512195738946975          0.5291052762464729 1.0000   
         C         C         1.0       0.9006461902789344  0.2103279426702417  0.4688797562376367 1.0000   
         C         C         1.0       0.8752761063235542  0.2483363387390166  0.4572840105611326 1.0000   
         H         H         1.0       0.9317728583194618  0.21162332156037697           0.456415899678378  1.0000   
         H         H         1.0       0.8834534100399059  0.1820461352635757  0.45573950570614674          1.0000   
         H         H         1.0       0.843388963242453   0.24179669137647172           0.4672025572741559 1.0000   
         H         H         1.0       0.8744936237193904  0.2465678443977244  0.4304137637835033 1.0000

