data_0
_chemical_formula_structural 
                                        C6H4C38H24C6H4C38H24C6H4C38H24C6H4C38H24C6H4C38H24C6H4C38H24C6H4C38H24C6H4C38H24C6H4C38H24C6H4C38H24C6H4C38H24C6H4C38H24C6H4C38H24C6H4C38H24C6H4C38H24C6H4C38H24C2H4C2H4C2H4C2H4C2H4C2H4C2H4C2H4C2H4C2H4C2H4C2H4C2H4C2H4C2H4C2H4C2H4C2H4C2H4C2H4C2H4C2H4C2H4C2H4C2H4C2H4C2H4C2H4C2H4C2H4C2H4C2H4C2H4C2H4C2H4C2H4C2H4C2H4C2H4C2H4C2H4C2H4C2H4C2H4C2H4C2H4C2H4C2H4
_chemical_formula_sum                   'C800 H640'
_cell_length_a                          28.91590574445248
_cell_length_b                          28.20050647467636
_cell_length_c                          36.76614092883573
_cell_angle_alpha                       89.80304907352298
_cell_angle_beta                        90.38824774438027
_cell_angle_gamma                       91.1841401974729
_space_group_name_H-M_alt               'P 1'
_space_group_IT_number                  1
loop_
  _space_group_symop_operation_xyz
         'x, y, z' 
loop_
  _atom_site_type_symbol
  _atom_site_label
  _atom_site_symmetry_multiplicity
  _atom_site_fract_x
  _atom_site_fract_y
  _atom_site_fract_z
  _atom_site_occupancy
         C         C         1.0       0.8025775357476027  0.4543908978138311  0.36799873866303745          1.0000   
         C         C         1.0       0.8466730386074093  0.46960873947773596           0.35683214467734664          1.0000   
         C         C         1.0       0.8748018455144652  0.49529831471291924           0.38044602777562536          1.0000   
         C         C         1.0       0.8576433143340211  0.5092704131839749  0.4142223781443866 1.0000   
         C         C         1.0       0.8172978890811823  0.4859898151849464  0.42614061649199003          1.0000   
         C         C         1.0       0.7878717876185454  0.46128524435083995           0.40231027272798847          1.0000   
         H         H         1.0       0.859085534947962   0.4620297457265558  0.3304806595557055 1.0000   
         H         H         1.0       0.9065724567787705  0.507141264978637   0.368860426226228  1.0000   
         H         H         1.0       0.7995362157584043  0.49835588102992734           0.4512622236437657 1.0000   
         H         H         1.0       0.7536618025029723  0.4505250485494042  0.4096060963685135 1.0000   
         C         C         1.0       0.8234873585545183  0.5945355328796301  0.4427187369427351 1.0000   
         C         C         1.0       0.863534254218965   0.5777500365950257  0.45924738896789497          1.0000   
         C         C         1.0       0.8781294952284229  0.6000137091388991  0.49279311685112487          1.0000   
         C         C         1.0       0.8551541958482188  0.636917145188846   0.5067715836635218 1.0000   
         C         C         1.0       0.8172117610662389  0.6537079873619536  0.48696582813375766          1.0000   
         C         C         1.0       0.8023626838355631  0.6308033304682691  0.4554040746172185 1.0000   
         C         C         1.0       0.8932356725652247  0.5398058437197978  0.43752789522488084          1.0000   
         C         C         1.0       0.9298118601867214  0.5762113273038992  0.41816498200935276          1.0000   
         C         C         1.0       0.969340789619591   0.589770829586297   0.4392206903487187 1.0000   
         C         C         1.0       0.9923374413924915  0.630786799637185   0.43020942524620986          1.0000   
         C         C         1.0       0.9778299606962488  0.6592455286094501  0.4031092121981654 1.0000   
         C         C         1.0       0.9433349731702407  0.6426018867221763  0.37874492903230966          1.0000   
         C         C         1.0       0.9192572873360518  0.6030069464637999  0.38846347118364516          1.0000   
         C         C         1.0       0.8959897265366747  0.4832082814417855  0.4961516542577236 1.0000   
         C         C         1.0       0.9204730308163582  0.45130104243173286           0.5158091429653595 1.0000   
         C         C         1.0       0.9649744784423482  0.4355275082503444  0.507118717226608  1.0000   
         C         C         1.0       0.9777082204908009  0.4452124097163013  0.4717036314190776 1.0000   
         C         C         1.0       0.9524992825457131  0.47642766961555066           0.4502026564646873 1.0000   
         C         C         1.0       0.9142925427978175  0.49951135786946227           0.4631978022266999 1.0000   
         C         C         1.0       0.9968837617855563  0.4071457085418023  0.5321243054384429 1.0000   
         C         C         1.0       0.9965703166651381  0.43892325457585696           0.649104731452133  1.0000   
         C         C         1.0       0.0037104604919118156         0.3951886711175448 0.6355660634004231 1.0000   
         C         C         1.0       0.9987421372465319  0.3848469049267978  0.5993240416616423 1.0000   
         C         C         1.0       0.990407745296669   0.4198824227190699  0.5740057839646501 1.0000   
         C         C         1.0       0.9865222336071789  0.46473568326254855           0.5868194266504327 1.0000   
         C         C         1.0       0.9891563785124404  0.4746338660064397  0.6230219764732517 1.0000   
         C         C         1.0       0.05094581809920995           0.4190169252171745 0.5285201525860102 1.0000   
         C         C         1.0       0.06699713084027636           0.4653389889796676 0.5207136591006738 1.0000   
         C         C         1.0       0.11189031247847181           0.4739633166848224 0.5128509296032266 1.0000   
         C         C         1.0       0.1430797342264785  0.43872873524017825           0.5159128891349445 1.0000   
         C         C         1.0       0.1318573184702212  0.3966061581830878  0.5300206384457471 1.0000   
         C         C         1.0       0.08471300141871962           0.38672875489973446          0.5387182929410858 1.0000   
         C         C         1.0       0.0036738177741029165         0.33235234825628435          0.4907244069883911 1.0000   
         C         C         1.0       0.9944989175718156  0.2857434186988033  0.4810032875809079 1.0000   
         C         C         1.0       0.9637260253095122  0.26021465673649075           0.5012993361062595 1.0000   
         C         C         1.0       0.9365614492720576  0.28225230848036836           0.5281915366938024 1.0000   
         C         C         1.0       0.9449114799008141  0.3296846304748909  0.536137361158432  1.0000   
         C         C         1.0       0.980602629384909   0.35340572717683355           0.5187889223871259 1.0000   
         H         H         1.0       0.8069615306704727  0.5856393026375175  0.4168929515374945 1.0000   
         H         H         1.0       0.9081555343658609  0.5844580838384146  0.5062463319275263 1.0000   
         H         H         1.0       0.8656143954244019  0.6545841556079931  0.5311497995069077 1.0000   
         H         H         1.0       0.773100954880711   0.6459973310768178  0.438499791210839  1.0000   
         H         H         1.0       0.9780451898487257  0.574673499002513   0.46535435861870234          1.0000   
         H         H         1.0       0.021023910163741277          0.6421243460790801 0.4475697803349026 1.0000   
         H         H         1.0       0.9320957060663366  0.6623339569138875  0.3541618790272102 1.0000   
         H         H         1.0       0.8881069877824443  0.5925679095498885  0.37101325030682875          1.0000   
         H         H         1.0       0.8659858040743761  0.4984968255927012  0.5111726193492332 1.0000   
         H         H         1.0       0.9079982861277918  0.4441879873405011  0.5429527664354706 1.0000   
         H         H         1.0       0.008182361212685896          0.4303271872751853 0.4626598468241699 1.0000   
         H         H         1.0       0.9647724360237044  0.4865208866903194  0.421922003991811  1.0000   
         H         H         1.0       0.016705071079300637          0.3667875496038033 0.6511140096455283 1.0000   
         H         H         1.0       0.006692403479052755          0.3471147085331972 0.5932750668296853 1.0000   
         H         H         1.0       0.9889799066208647  0.4951596277080971  0.5686026222718586 1.0000   
         H         H         1.0       0.9901076512855912  0.5106086052125647  0.6330662952646443 1.0000   
         H         H         1.0       0.04185818324846724           0.49329428934855807          0.5152240405933128 1.0000   
         H         H         1.0       0.12348305782553148           0.509362905931664  0.5031366531102606 1.0000   
         H         H         1.0       0.15567080774771735           0.36864936013447636          0.532726896676955  1.0000   
         H         H         1.0       0.0745538434300026  0.3498885594734027  0.5457315677749085 1.0000   
         H         H         1.0       0.02941309017776117           0.3518637059426408 0.4773260659297424 1.0000   
         H         H         1.0       0.014882499391311699          0.27247836401879677          0.46055283168909494          1.0000   
         H         H         1.0       0.9138082083004997  0.25881105623547634           0.5439017854833459 1.0000   
         H         H         1.0       0.9242200657458122  0.34882067367766645           0.5565619620095121 1.0000   
         C         C         1.0       0.38700590843300553           0.3880452507602376 0.7264254173428689 1.0000   
         C         C         1.0       0.34356527506438367           0.40411677204507235          0.7371557409323338 1.0000   
         C         C         1.0       0.3354023450239724  0.45267580784883704           0.7408072303050256 1.0000   
         C         C         1.0       0.37173927528985773           0.48543780248891094          0.7354689884796283 1.0000   
         C         C         1.0       0.4134030259373311  0.46738848405712086           0.7230792720452507 1.0000   
         C         C         1.0       0.4210281746057186  0.42001514895346415           0.7196839367125807 1.0000   
         H         H         1.0       0.3167326499429377  0.37832726781649195           0.7433250878881381 1.0000   
         H         H         1.0       0.3030904915214616  0.4645415721004911  0.7507784299100909 1.0000   
         H         H         1.0       0.4449608928092691  0.4860203552581239  0.7162695693003693 1.0000   
         H         H         1.0       0.4510550678530283  0.4055033043943489  0.7099153858731321 1.0000   
         C         C         1.0       0.44721511375375583           0.5668897011386923 0.7624565895088591 1.0000   
         C         C         1.0       0.4058925686469714  0.5737217594645199  0.7437099293653452 1.0000   
         C         C         1.0       0.407242340194512   0.6152820775702667  0.7221284830544051 1.0000   
         C         C         1.0       0.4478414102404558  0.6422381497424368  0.7176186440230776 1.0000   
         C         C         1.0       0.4876001296045429  0.6299598901692761  0.7339799747240934 1.0000   
         C         C         1.0       0.4862821281149266  0.5943156220688607  0.7593026495768408 1.0000   
         C         C         1.0       0.3633266257712743  0.5380542415926803  0.745935458038426  1.0000   
         C         C         1.0       0.3486864189662737  0.5389691948007493  0.7874779663920702 1.0000   
         C         C         1.0       0.32550984902230656           0.5770188178504151 0.8001340449110202 1.0000   
         C         C         1.0       0.3141959182274306  0.5799644818767603  0.8371309776042537 1.0000   
         C         C         1.0       0.3265837854751205  0.5460302661651043  0.8616360840621652 1.0000   
         C         C         1.0       0.3540897531326912  0.5104806420103876  0.8494906053147492 1.0000   
         C         C         1.0       0.36338173004584556           0.506079871305888  0.8125241919644343 1.0000   
         C         C         1.0       0.34029468667091156           0.5515895721212161 0.6796083234633516 1.0000   
         C         C         1.0       0.31377852564755737           0.565486466806154  0.6517123105205056 1.0000   
         C         C         1.0       0.2714137992963822  0.5872812131351196  0.6565060887608523 1.0000   
         C         C         1.0       0.258450467781329   0.5922453518148749  0.692763365876588  1.0000   
         C         C         1.0       0.283736683095182   0.575910984574628   0.7207463269093463 1.0000   
         C         C         1.0       0.3250384243224607  0.5531133331664568  0.7159951120001626 1.0000   
         C         C         1.0       0.24508838021834856           0.6094533726172786 0.6229780646376654 1.0000   
         C         C         1.0       0.33923838848589    0.7347618833503321  0.6160942593946752 1.0000   
         C         C         1.0       0.34832259899861895           0.6961635749917173 0.5947138996763252 1.0000   
         C         C         1.0       0.31527781582478576           0.6588306582594339 0.5936274681858662 1.0000   
         C         C         1.0       0.27751950442277196           0.6587748794329222 0.6179834846088641 1.0000   
         C         C         1.0       0.27273105266405584           0.6967678860348006 0.6404236792049101 1.0000   
         C         C         1.0       0.3035422190565245  0.7343109615787853  0.6396298086281424 1.0000   
         C         C         1.0       0.1928459828150068  0.620633420652002   0.6304028075274002 1.0000   
         C         C         1.0       0.16482605351302423           0.5898224283671063 0.6509007732261819 1.0000   
         C         C         1.0       0.1212652134058471  0.6014642206738985  0.6588375896552565 1.0000   
         C         C         1.0       0.102603751809109   0.641946984046474   0.6435442374098189 1.0000   
         C         C         1.0       0.1277979353865696  0.6709151898772633  0.6187442141578603 1.0000   
         C         C         1.0       0.17329691683187928           0.6617138594272765 0.6145670398824895 1.0000   
         C         C         1.0       0.23346983778589764           0.5969967114626223 0.5561059372599136 1.0000   
         C         C         1.0       0.2276884451372668  0.5677529792387495  0.5266760125212357 1.0000   
         C         C         1.0       0.22556014179378434           0.5199600869715086 0.5308846292436633 1.0000   
         C         C         1.0       0.23435589565151652           0.5006063152332715 0.5646743683069136 1.0000   
         C         C         1.0       0.2404802009228954  0.5286195816154785  0.5936582092683549 1.0000   
         C         C         1.0       0.24006786439895703           0.5777860700770459 0.5896258221038758 1.0000   
         H         H         1.0       0.44955552382057146           0.5365507152741303 0.7800712165733255 1.0000   
         H         H         1.0       0.376704534268992   0.6276550497391021  0.7063597845491295 1.0000   
         H         H         1.0       0.44668507878385644           0.6683380595931968 0.6960024634132753 1.0000   
         H         H         1.0       0.5170797549460674  0.5855039861030589  0.7729955035777796 1.0000   
         H         H         1.0       0.3172389916882361  0.6064900761936393  0.782816943724875  1.0000   
         H         H         1.0       0.302423569425332   0.6126252513764999  0.8467070907562789 1.0000   
         H         H         1.0       0.36971434417476157           0.48485101265649627          0.8670153305731502 1.0000   
         H         H         1.0       0.39011930344357765           0.48160178424864275          0.8064673831568738 1.0000   
         H         H         1.0       0.3740183778373134  0.540099234255908   0.6743070573969546 1.0000   
         H         H         1.0       0.32296509865659984           0.5571784250419378 0.6244503592665588 1.0000   
         H         H         1.0       0.2275749896746773  0.6108968485919485  0.7012089107865006 1.0000   
         H         H         1.0       0.2681726443846097  0.5788089133662567  0.7469119470650726 1.0000   
         H         H         1.0       0.3789542170434145  0.6968945046417284  0.5763500112353332 1.0000   
         H         H         1.0       0.3227768295363257  0.6262476174001074  0.5819658029287637 1.0000   
         H         H         1.0       0.24524647173549383           0.698249627677818  0.660322852977468  1.0000   
         H         H         1.0       0.29789644853465286           0.7647838863533045 0.6555297561827719 1.0000   
         H         H         1.0       0.17518408620487155           0.5589076196826465 0.66576155285075   1.0000   
         H         H         1.0       0.10139457824436136           0.5807972753017584 0.6775792288719911 1.0000   
         H         H         1.0       0.1104780348662365  0.6992431642576166  0.6043256145480606 1.0000   
         H         H         1.0       0.18982514425387437           0.6836814240765247 0.5959514792329782 1.0000   
         H         H         1.0       0.23645767182406097           0.6358316133207877 0.5522551334827749 1.0000   
         H         H         1.0       0.22827511155931654           0.5855375290718168 0.5025939186486403 1.0000   
         H         H         1.0       0.23018579686393953           0.4635441647798021 0.5689565538509446 1.0000   
         H         H         1.0       0.24239373468119013           0.5128828480111717 0.6196580944351855 1.0000   
         C         C         1.0       0.5128091177570214  0.7746308190655412  0.41928199963151525          1.0000   
         C         C         1.0       0.5496246836051312  0.749234528674343   0.43179064595058003          1.0000   
         C         C         1.0       0.5822437315301152  0.7681907419562748  0.4537938291144402 1.0000   
         C         C         1.0       0.581622172716301   0.8159793801797509  0.4629182539270564 1.0000   
         C         C         1.0       0.542401407578623   0.8401604102761191  0.4541530897013923 1.0000   
         C         C         1.0       0.5059950422142135  0.8190888635172113  0.4348271268338736 1.0000   
         H         H         1.0       0.5573170036158802  0.7132902079475761  0.42083948277009775          1.0000   
         H         H         1.0       0.611852807637902   0.7497878950640924  0.4658589581418304 1.0000   
         H         H         1.0       0.5387775111882857  0.8749837936382632  0.465587694735388  1.0000   
         H         H         1.0       0.4761378388475099  0.838969989347325   0.42817323550568187          1.0000   
         C         C         1.0       0.6323935517637246  0.9069423388795558  0.42836502629803663          1.0000   
         C         C         1.0       0.6402659723451448  0.8939438583146996  0.4636756843030447 1.0000   
         C         C         1.0       0.6658741888126906  0.9274312486937675  0.48417421456619164          1.0000   
         C         C         1.0       0.6873031649890874  0.9681496528257921  0.4690267104939364 1.0000   
         C         C         1.0       0.6843989502665003  0.9741800346395199  0.4310718175418331 1.0000   
         C         C         1.0       0.6525256842278354  0.9442968164370665  0.41218588379694776          1.0000   
         C         C         1.0       0.6247277406970763  0.8433458503034387  0.4807291808223327 1.0000   
         C         C         1.0       0.6730890978005947  0.8214145321090628  0.4742346034802275 1.0000   
         C         C         1.0       0.7064979331121038  0.8231168907781597  0.5019366042844591 1.0000   
         C         C         1.0       0.7436935708828917  0.7965476432438615  0.5006523870777098 1.0000   
         C         C         1.0       0.7520797113972998  0.7703714641329876  0.470230235462358  1.0000   
         C         C         1.0       0.7244932735818091  0.7732616299042951  0.43886186265353283          1.0000   
         C         C         1.0       0.6881349420634134  0.8024476769462088  0.4411372151122795 1.0000   
         C         C         1.0       0.5968701316986078  0.8798028816330925  0.5423015725108636 1.0000   
         C         C         1.0       0.5938954058986053  0.876559910985616   0.5786553834847808 1.0000   
         C         C         1.0       0.6045009923920082  0.8380913125352671  0.5995960752828063 1.0000   
         C         C         1.0       0.6130492053980751  0.7984436257116676  0.5806243121327579 1.0000   
         C         C         1.0       0.6179346575295783  0.8000601882056144  0.54323127952084   1.0000   
         C         C         1.0       0.6100815890575876  0.8402400244239452  0.5231407981867543 1.0000   
         C         C         1.0       0.6014357830727526  0.8375715948090897  0.6439375685067076 1.0000   
         C         C         1.0       0.6413545445506033  0.9749271220132646  0.693968252964576  1.0000   
         C         C         1.0       0.6064986528131817  0.9470438725630168  0.708354616324328  1.0000   
         C         C         1.0       0.5956835053650846  0.9046185720820489  0.6935879981060432 1.0000   
         C         C         1.0       0.614877978484543   0.8894403210954107  0.6619118329841245 1.0000   
         C         C         1.0       0.6502935383673273  0.917555943315361   0.6462432625577622 1.0000   
         C         C         1.0       0.6620600084589564  0.9591562448707256  0.6629429107479247 1.0000   
         C         C         1.0       0.640484675141028   0.807006632847387   0.6643977945536901 1.0000   
         C         C         1.0       0.6850073734109705  0.8047584808378974  0.6514591798835688 1.0000   
         C         C         1.0       0.7207404711587483  0.7860633965554333  0.6698907023965502 1.0000   
         C         C         1.0       0.7135699800908987  0.7732584758364756  0.7064437051268537 1.0000   
         C         C         1.0       0.6677961823056435  0.7686154003976933  0.7184707855415888 1.0000   
         C         C         1.0       0.6314543974963976  0.7885751423684488  0.6993395988995454 1.0000   
         C         C         1.0       0.5409379282797329  0.7697699640084965  0.6493673955021042 1.0000   
         C         C         1.0       0.49626964448712024           0.753849177213747  0.6539769107177713 1.0000   
         C         C         1.0       0.45910190596269995           0.7814816027080917 0.6524958328795091 1.0000   
         C         C         1.0       0.465997784609692   0.8304861701731282  0.6494657895485965 1.0000   
         C         C         1.0       0.5110640264956593  0.8496040878494656  0.6474307432021034 1.0000   
         C         C         1.0       0.5496708133696935  0.8195349143779407  0.6473566660105022 1.0000   
         H         H         1.0       0.6106788171407324  0.8815400108771694  0.4127655204462443 1.0000   
         H         H         1.0       0.6765973216505692  0.9168190539858102  0.5121448007330628 1.0000   
         H         H         1.0       0.7103107796529492  0.9897090604623263  0.48382690482040436          1.0000   
         H         H         1.0       0.6478745514492563  0.9542141189826951  0.3836125891820016 1.0000   
         H         H         1.0       0.6989193776623153  0.8417282954296217  0.5279187954309574 1.0000   
         H         H         1.0       0.7667342263789289  0.7972438746859593  0.5222549659635202 1.0000   
         H         H         1.0       0.7328664912491111  0.7536540966513716  0.4162106517451365 1.0000   
         H         H         1.0       0.6627567788068081  0.7976139134685122  0.41819888340197436          1.0000   
         H         H         1.0       0.5899625918479511  0.9105633137851012  0.527624598323588  1.0000   
         H         H         1.0       0.5795858591106012  0.906905921656493   0.5937689355846456 1.0000   
         H         H         1.0       0.6186886598828585  0.7673347660070341  0.596058762427736  1.0000   
         H         H         1.0       0.6254283155908609  0.7674834328131694  0.5289933795856422 1.0000   
         H         H         1.0       0.5912983816347468  0.9560271698044646  0.7333213630256076 1.0000   
         H         H         1.0       0.5736097552967995  0.8811341245489059  0.7091754496073212 1.0000   
         H         H         1.0       0.6710974901345909  0.9070864944205856  0.6246712472214284 1.0000   
         H         H         1.0       0.6914264602236696  0.9787494288036812  0.6515138054444514 1.0000   
         H         H         1.0       0.6930620288274327  0.8234676101304778  0.6264984879115412 1.0000   
         H         H         1.0       0.7543507348705393  0.7844024913640576  0.6571160611048498 1.0000   
         H         H         1.0       0.6601913389330522  0.7535018891982446  0.7458304493892529 1.0000   
         H         H         1.0       0.5973161555820228  0.7825784246158887  0.7108461962483583 1.0000   
         H         H         1.0       0.5685274355909423  0.7437608593881972  0.6485997776598216 1.0000   
         H         H         1.0       0.4946864379724059  0.7152505534457446  0.6532949820480742 1.0000   
         H         H         1.0       0.43826843711919444           0.8532284307185926 0.6520939505717859 1.0000   
         H         H         1.0       0.5181236540964026  0.8855938287884987  0.6486888831348158 1.0000   
         C         C         1.0       0.5899711119921182  0.5890924598231748  0.7153852579977749 1.0000   
         C         C         1.0       0.6166321015151669  0.5961754292042416  0.7452934674784639 1.0000   
         C         C         1.0       0.6299945450831183  0.5567154245773314  0.7642133667726102 1.0000   
         C         C         1.0       0.6169413077081275  0.5105316794684748  0.7538231254247055 1.0000   
         C         C         1.0       0.5922071600762846  0.5047744437321859  0.7218791667261552 1.0000   
         C         C         1.0       0.5803922145669849  0.5441489269717528  0.7025792194361345 1.0000   
         H         H         1.0       0.62184694642921    0.6302056686689682  0.7581180721508384 1.0000   
         H         H         1.0       0.651839403125121   0.5661470616583123  0.7891322214849584 1.0000   
         H         H         1.0       0.5753565836707434  0.4731896307547524  0.712891074442761  1.0000   
         H         H         1.0       0.5635301663272315  0.5376021139562535  0.6767131999471788 1.0000   
         C         C         1.0       0.5581319363217444  0.42297420398925367           0.7750052617603844 1.0000   
         C         C         1.0       0.6055362685163975  0.41839341489359194           0.7734839975226782 1.0000   
         C         C         1.0       0.6248493118465629  0.3756735983158336  0.7829439921932329 1.0000   
         C         C         1.0       0.5958090810351089  0.33505901439474517           0.7882744127525801 1.0000   
         C         C         1.0       0.5506170502652693  0.3380987618017159  0.7827374456963722 1.0000   
         C         C         1.0       0.5315598420206965  0.3831822398025989  0.7800238101083619 1.0000   
         C         C         1.0       0.6361232943849628  0.4662315689389276  0.7781379123065204 1.0000   
         C         C         1.0       0.6339124429784995  0.4759058345455195  0.8226470354226698 1.0000   
         C         C         1.0       0.6650707096169037  0.46082160953139073           0.8479779991479391 1.0000   
         C         C         1.0       0.6643878049490965  0.47654514780347174           0.8823551647520621 1.0000   
         C         C         1.0       0.6296418183996676  0.5053219920311561  0.8946260880516945 1.0000   
         C         C         1.0       0.5968136162408584  0.519299678517484   0.8709146405406102 1.0000   
         C         C         1.0       0.5972388677716645  0.5029712986914019  0.8354934636363386 1.0000   
         C         C         1.0       0.6879140562014348  0.4473508033296512  0.7256867594812173 1.0000   
         C         C         1.0       0.7248563630869286  0.4621240541292486  0.703772406937286  1.0000   
         C         C         1.0       0.7544953626306208  0.4981215362069072  0.7154988998103282 1.0000   
         C         C         1.0       0.7570448363120396  0.5051275450272397  0.752212098885658  1.0000   
         C         C         1.0       0.7217720295081979  0.4893936107115771  0.7737988426997116 1.0000   
         C         C         1.0       0.6853861835466953  0.46146182216032555           0.7612267967609313 1.0000   
         C         C         1.0       0.7869604837820343  0.5282832887469953  0.6917697022755745 1.0000   
         C         C         1.0       0.7438467988453366  0.5482193166873172  0.5791359216441716 1.0000   
         C         C         1.0       0.7896129061000305  0.549936265156523   0.5872592170247483 1.0000   
         C         C         1.0       0.8065774791009253  0.5393780266435114  0.6222651310706772 1.0000   
         C         C         1.0       0.7737406839167839  0.5317657919505642  0.6501340121260104 1.0000   
         C         C         1.0       0.7266865717112471  0.5316966812137367  0.6409436694667201 1.0000   
         C         C         1.0       0.7142089453910788  0.543431881374988   0.6070402164293427 1.0000   
         C         C         1.0       0.8343730265001158  0.5030627640784422  0.6997206878079294 1.0000   
         C         C         1.0       0.8650693756441002  0.5176457305366831  0.7280269125655793 1.0000   
         C         C         1.0       0.9074266311639605  0.4959546175765628  0.7300297492078559 1.0000   
         C         C         1.0       0.9189361844694238  0.4599067694977875  0.7066824361310888 1.0000   
         C         C         1.0       0.8882121863369459  0.44263939444125255           0.6825902833648001 1.0000   
         C         C         1.0       0.8465286642204459  0.46581386373208467           0.6781773437336267 1.0000   
         C         C         1.0       0.827738114414881   0.6136738246380856  0.6903784357519709 1.0000   
         C         C         1.0       0.8253358197347738  0.6627446340165951  0.6938128627783314 1.0000   
         C         C         1.0       0.7911292366672081  0.682986169119897   0.7132099032186446 1.0000   
         C         C         1.0       0.7533529645017423  0.6540804794711748  0.7212330074621907 1.0000   
         C         C         1.0       0.7518905446341575  0.6066532424601078  0.7125602205184804 1.0000   
         C         C         1.0       0.7902259059736387  0.5843225487599155  0.6981619594264115 1.0000   
         H         H         1.0       0.5397761489208545  0.4564179375736495  0.774306802342172  1.0000   
         H         H         1.0       0.6614965815812869  0.37160171906527845           0.7873954443044405 1.0000   
         H         H         1.0       0.60752460394194    0.2994348800575875  0.7916281708707177 1.0000   
         H         H         1.0       0.493127848972646   0.3859876689924433  0.7755606721587824 1.0000   
         H         H         1.0       0.6955781531320184  0.4444584014603075  0.8379299924040486 1.0000   
         H         H         1.0       0.6924254576547086  0.4662382088052405  0.900462874800678  1.0000   
         H         H         1.0       0.565773359547121   0.5388234619557021  0.8798405021851382 1.0000   
         H         H         1.0       0.568783623236018   0.5129748771166298  0.8171901431463311 1.0000   
         H         H         1.0       0.6606331285131887  0.43126855849446555           0.7092005380092715 1.0000   
         H         H         1.0       0.7223392657892554  0.45254497751913253           0.6746726517411706 1.0000   
         H         H         1.0       0.7763949879687299  0.5304767182011823  0.7652950295724052 1.0000   
         H         H         1.0       0.7192302854543375  0.5023959748454592  0.8006935102954092 1.0000   
         H         H         1.0       0.8137223316249915  0.5552065879379798  0.5645910083567199 1.0000   
         H         H         1.0       0.8428564585137439  0.5424030971735813  0.6309588443421177 1.0000   
         H         H         1.0       0.7025774310003533  0.5358718463619678  0.6613143509557993 1.0000   
         H         H         1.0       0.6767602010288751  0.5425713813980668  0.6024047099304545 1.0000   
         H         H         1.0       0.8555825972987605  0.5473410550904794  0.745726070545399  1.0000   
         H         H         1.0       0.9317563705386083  0.510970050610806   0.7485916868144428 1.0000   
         H         H         1.0       0.8947808083932844  0.4109729502281933  0.6678685273275474 1.0000   
         H         H         1.0       0.8213681670616687  0.4497941323247208  0.6590787983584202 1.0000   
         H         H         1.0       0.8593989964050623  0.5989500081616803  0.6798445121869836 1.0000   
         H         H         1.0       0.8555386973539731  0.6820979628203991  0.6881246756697912 1.0000   
         H         H         1.0       0.7238050268950085  0.668613920174327   0.7386665617742257 1.0000   
         H         H         1.0       0.7193493453812324  0.5877562310097648  0.7170941818791323 1.0000   
         C         C         1.0       0.852339469185343   0.33535715744291894           0.41145989267926897          1.0000   
         C         C         1.0       0.8089584624914924  0.3199472887467546  0.39969898457407244          1.0000   
         C         C         1.0       0.7867407899493978  0.28113826181686913           0.41545244132722725          1.0000   
         C         C         1.0       0.8067405223881285  0.257835854092264   0.4454982401162021 1.0000   
         C         C         1.0       0.8459510623877226  0.2787726430889528  0.46089362579432913          1.0000   
         C         C         1.0       0.867191998157215   0.3173205689226864  0.44363702061159566          1.0000   
         H         H         1.0       0.7988890545411522  0.33453762935842946           0.37327496589340464          1.0000   
         H         H         1.0       0.7591815949570881  0.26364428989245703           0.3997865715409017 1.0000   
         H         H         1.0       0.8584145012271711  0.2701794277143504  0.48611819841346643          1.0000   
         H         H         1.0       0.9015201633365906  0.32317212874557333           0.4551144082725634 1.0000   
         C         C         1.0       0.8626237594893741  0.1673341453056036  0.44844212024444136          1.0000   
         C         C         1.0       0.8300390780988672  0.17711589153710694           0.47507147380291126          1.0000   
         C         C         1.0       0.8275013369068259  0.14930175112445693           0.5066813281842585 1.0000   
         C         C         1.0       0.8621499501055425  0.11455986070762349           0.5127742895626718 1.0000   
         C         C         1.0       0.8916155702613843  0.10545683744076421           0.4824842241218177 1.0000   
         C         C         1.0       0.8903835829150626  0.12926606308585953           0.4504851946641987 1.0000   
         C         C         1.0       0.7879278355534409  0.21234593673648341           0.4663067177732186 1.0000   
         C         C         1.0       0.7551745868234616  0.17519423204178353           0.4445313672774671 1.0000   
         C         C         1.0       0.7207223796650559  0.15016085997014522           0.46199402872101913          1.0000   
         C         C         1.0       0.6968820322311327  0.11494664327338994           0.4437259233299699 1.0000   
         C         C         1.0       0.7039236807160926  0.10374921395783236           0.408567576579405  1.0000   
         C         C         1.0       0.7408555884228623  0.12668943898697554           0.3914371537888885 1.0000   
         C         C         1.0       0.7629920437869393  0.16518331679863746           0.4086773931236002 1.0000   
         C         C         1.0       0.7803572243369773  0.24512904160835702           0.5329994394073007 1.0000   
         C         C         1.0       0.7603317168669024  0.2735302075075271  0.5570155605303979 1.0000   
         C         C         1.0       0.7153446304254145  0.28979641271379986           0.5526482608177533 1.0000   
         C         C         1.0       0.6953228811347443  0.28233193897913905           0.5190641786475472 1.0000   
         C         C         1.0       0.7167409243072069  0.2543429572161804  0.49396356792674856          1.0000   
         C         C         1.0       0.7608339743467396  0.2373112199698098  0.4990224595299735 1.0000   
         C         C         1.0       0.6976972217458404  0.3269215500272606  0.581534267677095  1.0000   
         C         C         1.0       0.7679012997287259  0.2959521633781639  0.6860464044399752 1.0000   
         C         C         1.0       0.7630005814667696  0.34100856640015476           0.6746373037749716 1.0000   
         C         C         1.0       0.7404169912000008  0.3527444675855297  0.6426672482053448 1.0000   
         C         C         1.0       0.7212862464691476  0.31728554303791295           0.6222282376735462 1.0000   
         C         C         1.0       0.7204898291823134  0.27032134477545755           0.6363881730223333 1.0000   
         C         C         1.0       0.7448454344053694  0.2605335998119278  0.6670386957145417 1.0000   
         C         C         1.0       0.6445790582943453  0.32535935337278177           0.5934229625737808 1.0000   
         C         C         1.0       0.614593411490523   0.28500407616944334           0.5894877579400081 1.0000   
         C         C         1.0       0.5688795142384702  0.2872210570240205  0.5953632402024395 1.0000   
         C         C         1.0       0.5494888525199886  0.3281172619881906  0.6060742945903063 1.0000   
         C         C         1.0       0.5774413567697428  0.3656621572872727  0.6150894303818366 1.0000   
         C         C         1.0       0.6244180849123768  0.3624909432115432  0.6108996056366652 1.0000   
         C         C         1.0       0.6830530420308472  0.40030066834688727           0.5391217460860098 1.0000   
         C         C         1.0       0.6965016812706862  0.44249171711711643           0.5224979892831167 1.0000   
         C         C         1.0       0.740668454213792   0.4603660632396111  0.5286942152068921 1.0000   
         C         C         1.0       0.770309941337189   0.43480711791874926           0.5485857849316746 1.0000   
         C         C         1.0       0.7577942678836471  0.3929335770222574  0.5649601522384383 1.0000   
         C         C         1.0       0.7136342347505248  0.3754141786499687  0.5606659483639015 1.0000   
         H         H         1.0       0.8621826972867398  0.18039081338146404           0.4211273097479658 1.0000   
         H         H         1.0       0.7974000141613297  0.14932956271469636           0.5256318919825982 1.0000   
         H         H         1.0       0.8586409108178801  0.09055886601346205           0.5361335715680416 1.0000   
         H         H         1.0       0.9114963010783389  0.11838547538931747           0.42979401616610285          1.0000   
         H         H         1.0       0.7174289018720115  0.15860895793560215           0.48986542990492626          1.0000   
         H         H         1.0       0.672952526920011   0.09452121879982048           0.4591996096081031 1.0000   
         H         H         1.0       0.7449262337582118  0.1199893624036685  0.3617412934273617 1.0000   
         H         H         1.0       0.7851208617660186  0.18611822090915597           0.39174890937971585          1.0000   
         H         H         1.0       0.8154991423331741  0.23400435305995837           0.5377283286614709 1.0000   
         H         H         1.0       0.7819295698060599  0.28061769903581457           0.5795000165076931 1.0000   
         H         H         1.0       0.662251944367498   0.301668818920775   0.5128940027034263 1.0000   
         H         H         1.0       0.697555964071966   0.2536781603632475  0.46842661538930463          1.0000   
         H         H         1.0       0.7797609813215117  0.37112471630535576           0.687321659152671  1.0000   
         H         H         1.0       0.7405735972505602  0.3903475444011786  0.6335398779180937 1.0000   
         H         H         1.0       0.7033900108285307  0.24159957326781095           0.6218304997242732 1.0000   
         H         H         1.0       0.7495273307739082  0.22471493232506254           0.6753110851417806 1.0000   
         H         H         1.0       0.6254571928536968  0.2529835806227491  0.5760074076856909 1.0000   
         H         H         1.0       0.5463859027673672  0.25908036802568424           0.5849008179889934 1.0000   
         H         H         1.0       0.5619562234901341  0.39688008311050743           0.6258191595190226 1.0000   
         H         H         1.0       0.6426780947523536  0.39431172082992627           0.6220865261739355 1.0000   
         H         H         1.0       0.6481237848448372  0.38861351221777984           0.5327231926818229 1.0000   
         H         H         1.0       0.6706183219565169  0.4606524176549809  0.5084280711569356 1.0000   
         H         H         1.0       0.8043719160658356  0.4467587917523739  0.5508828254066773 1.0000   
         H         H         1.0       0.7878603064036158  0.37304024329321683           0.5772315944335864 1.0000   
         C         C         1.0       0.4661260363195414  0.24082146523392245           0.8202008966244406 1.0000   
         C         C         1.0       0.4893794148755187  0.20339715990906865           0.8318040123081911 1.0000   
         C         C         1.0       0.4659762344988614  0.15974060327468212           0.8315441773331489 1.0000   
         C         C         1.0       0.420578124578149   0.15140299014224462           0.8196406915598135 1.0000   
         C         C         1.0       0.3991557760619229  0.19270200787298616           0.8104213107843337 1.0000   
         C         C         1.0       0.421212418262317   0.23533691902300202           0.8081659684830225 1.0000   
         H         H         1.0       0.5251910634477717  0.20655532616346436           0.8418163980319237 1.0000   
         H         H         1.0       0.48473214402647774           0.12990850816770982          0.840354275577573  1.0000   
         H         H         1.0       0.363145247639743   0.18681044732400165           0.8017369260977181 1.0000   
         H         H         1.0       0.3994971022790087  0.2635450003250818  0.7977132679875814 1.0000   
         C         C         1.0       0.3161146383425544  0.12727673827482755           0.845501098992851  1.0000   
         C         C         1.0       0.3372004942385422  0.10014637637197753           0.8187860692996749 1.0000   
         C         C         1.0       0.311666506497461   0.06342433022010385           0.803996805432866  1.0000   
         C         C         1.0       0.2664297155741136  0.05455157266706023           0.8155846907188196 1.0000   
         C         C         1.0       0.2450424600480958  0.08653685240515495           0.8384390346528652 1.0000   
         C         C         1.0       0.2681784652177845  0.1255124265163434  0.8520754882689023 1.0000   
         C         C         1.0       0.3925739201926321  0.10393113997446177           0.8133477499647525 1.0000   
         C         C         1.0       0.4074194967497312  0.0617224905632543  0.8412790577471371 1.0000   
         C         C         1.0       0.4037088632399137  0.013887717645908461         0.8338525818027007 1.0000   
         C         C         1.0       0.41132395321208565           0.9802238308155278 0.8601800906178517 1.0000   
         C         C         1.0       0.42339849643761696           0.9921027776043343 0.8957715689344932 1.0000   
         C         C         1.0       0.42716745326964817           0.03968957431945719          0.9041505576179483 1.0000   
         C         C         1.0       0.41707209701732323           0.07419535701488855          0.8780188519715372 1.0000   
         C         C         1.0       0.38144616012001115           0.11138516801630637          0.7450033559268974 1.0000   
         C         C         1.0       0.397777242631998   0.11302949803379472           0.7101368498556874 1.0000   
         C         C         1.0       0.44041271142384114           0.0960772287235685 0.7030335079902608 1.0000   
         C         C         1.0       0.4636561439253892  0.07262305979365814           0.730745174981511  1.0000   
         C         C         1.0       0.4476366935089622  0.07047341070954091           0.7654100623329598 1.0000   
         C         C         1.0       0.40929994313145884           0.09410379043222067          0.7736339114425035 1.0000   
         C         C         1.0       0.46394733369009206           0.10207818475660203          0.6642572381497933 1.0000   
         C         C         1.0       0.3796057179477275  0.9862698651520283  0.6193328937847445 1.0000   
         C         C         1.0       0.36532480757905605           0.032105922603682835         0.618704794240059  1.0000   
         C         C         1.0       0.39270339105183816           0.06799924868718144          0.6309769581538349 1.0000   
         C         C         1.0       0.43401836304911334           0.059476445517665955         0.6461719090418788 1.0000   
         C         C         1.0       0.4479360941939719  0.012940706639406052         0.6503186185813041 1.0000   
         C         C         1.0       0.4228142411260694  0.9759347555539505  0.6345757626966594 1.0000   
         C         C         1.0       0.5191762781236189  0.09618574190452671           0.6640679374821821 1.0000   
         C         C         1.0       0.5452644299145362  0.12287220890192849           0.6912502228098916 1.0000   
         C         C         1.0       0.5913230529472628  0.11668478719590736           0.6968144987022634 1.0000   
         C         C         1.0       0.6133570612266177  0.08434335723144337           0.6753205298141892 1.0000   
         C         C         1.0       0.5905863558240354  0.06400387826065357           0.6451577356107326 1.0000   
         C         C         1.0       0.5446836715674741  0.07514497240580154           0.6380914038515927 1.0000   
         C         C         1.0       0.46181662880253854           0.16047306705969025          0.6116031379523729 1.0000   
         C         C         1.0       0.46187307743334327           0.20406632772823763          0.5960194103311676 1.0000   
         C         C         1.0       0.4628211827978     0.24307550147163476           0.6179468785482717 1.0000   
         C         C         1.0       0.46317096404473673           0.23801092775159435          0.6550045218895555 1.0000   
         C         C         1.0       0.46459096531778143           0.1937126312621406 0.670038395302429  1.0000   
         C         C         1.0       0.4614570713441378  0.15440222759160704           0.6486016337863677 1.0000   
         H         H         1.0       0.3344271542362558  0.15604209218717074           0.8594932774576972 1.0000   
         H         H         1.0       0.3276360466512362  0.035322782031355526         0.7880612462857268 1.0000   
         H         H         1.0       0.25082048392709116           0.023061010688836037         0.8046043784239739 1.0000   
         H         H         1.0       0.25569870839741776           0.15027472981085188          0.8708815330390931 1.0000   
         H         H         1.0       0.3922949102541159  0.0023319079293089295        0.8067137591818775 1.0000   
         H         H         1.0       0.4066112959279351  0.942342721084502   0.8529251651689687 1.0000   
         H         H         1.0       0.4326570760981755  0.04948009834973944           0.932470212474549  1.0000   
         H         H         1.0       0.41467492867640265           0.11127129312419133          0.8864362628880443 1.0000   
         H         H         1.0       0.34804476225798053           0.12566542600288702          0.7508625795919892 1.0000   
         H         H         1.0       0.3802612312105142  0.13704470405351668           0.6893913192822703 1.0000   
         H         H         1.0       0.4915427156261725  0.050674227250099735         0.7214382056835323 1.0000   
         H         H         1.0       0.47254074602350343           0.06175576956945795          0.7847725306833828 1.0000   
         H         H         1.0       0.3311284920283409  0.04130544462013952           0.6077162335424607 1.0000   
         H         H         1.0       0.38308899504326366           0.10293865414506383          0.624394001050313  1.0000   
         H         H         1.0       0.47823478072282366           0.004978023801176068         0.6676519789107765 1.0000   
         H         H         1.0       0.4325185911966228  0.9392196597603069  0.6356287985333287 1.0000   
         H         H         1.0       0.531917955633631   0.14416057588840306           0.7122081303802975 1.0000   
         H         H         1.0       0.6108460652315344  0.13022787286015514           0.7209123367085993 1.0000   
         H         H         1.0       0.6072491795060668  0.042674449747774235         0.625591320015236  1.0000   
         H         H         1.0       0.5259631178431246  0.06077776900599474           0.6137655976547207 1.0000   
         H         H         1.0       0.4638077087577301  0.13107280222707654           0.5944846479550738 1.0000   
         H         H         1.0       0.4670256388673901  0.20522390988521563           0.5674238474271242 1.0000   
         H         H         1.0       0.4609473016250392  0.26957851759527984           0.6709673063670925 1.0000   
         H         H         1.0       0.4640750511801457  0.19038564981400868           0.6987608724319871 1.0000   
         C         C         1.0       0.21069243754345135           0.9336054095805093 0.4323260339477851 1.0000   
         C         C         1.0       0.189070919329242   0.9681032955601241  0.4507053433883797 1.0000   
         C         C         1.0       0.1462028041933605  0.9586770900080985  0.4659583883098358 1.0000   
         C         C         1.0       0.12626515622086504           0.9134474031968243 0.4660798639053119 1.0000   
         C         C         1.0       0.15399867751002327           0.8780900009238491 0.4549919213235093 1.0000   
         C         C         1.0       0.19564241793850434           0.8858223011040752 0.43682516739841376          1.0000   
         H         H         1.0       0.20285090114797355           0.0032345818033137075        0.4511612418795994 1.0000   
         H         H         1.0       0.13121763170013495           0.9876871421007095 0.48103761971500564          1.0000   
         H         H         1.0       0.1425048993253422  0.8408333523102874  0.4575909042264643 1.0000   
         H         H         1.0       0.21824267831004807           0.8571821823316903 0.43069804097565295          1.0000   
         C         C         1.0       0.051329160442087574          0.8498114786428808 0.4289239068305914 1.0000   
         C         C         1.0       0.051888680967548506          0.8578148473903331 0.46694551096681913          1.0000   
         C         C         1.0       0.026427246040601426          0.8262531121859835 0.4874467382942274 1.0000   
         C         C         1.0       0.9991109612992429  0.7926489426789546  0.4710833588259425 1.0000   
         C         C         1.0       0.9974605903811371  0.786395923275749   0.43342665036048267          1.0000   
         C         C         1.0       0.024867874485023256          0.8149364227227361 0.4126947222954942 1.0000   
         C         C         1.0       0.07748067930600101           0.903425694269983  0.4847102522130069 1.0000   
         C         C         1.0       0.03344288137948248           0.9391400646474367 0.48087332103862473          1.0000   
         C         C         1.0       0.9940519542425368  0.9327140126731406  0.5016056359040104 1.0000   
         C         C         1.0       0.9563951192014534  0.9567098858572626  0.4923234372626656 1.0000   
         C         C         1.0       0.9570325537609925  0.9912935235366543  0.4655971200608519 1.0000   
         C         C         1.0       0.9959827865085211  0.9986065538019625  0.44687419694409036          1.0000   
         C         C         1.0       0.03450280628513469           0.9739884486738499 0.45486481896440206          1.0000   
         C         C         1.0       0.10752597764209634           0.856494650893983  0.5373116822306586 1.0000   
         C         C         1.0       0.11344370230069982           0.8499182297110707 0.5738037080455416 1.0000   
         C         C         1.0       0.11032135241225935           0.8877775124998789 0.5980870205328331 1.0000   
         C         C         1.0       0.10515603231068059           0.9330471898363976 0.5845755679752225 1.0000   
         C         C         1.0       0.0903561252345038  0.9377451566051875  0.5498515262583284 1.0000   
         C         C         1.0       0.08828603937725873           0.8991923489126369 0.5261128940084301 1.0000   
         C         C         1.0       0.12255308930051298           0.8786334472837307 0.640140439685254  1.0000   
         C         C         1.0       0.07559132521411939           0.7415817466187478 0.6780699405746275 1.0000   
         C         C         1.0       0.11800858529925796           0.7571803577412565 0.685002368625208  1.0000   
         C         C         1.0       0.13265516609109815           0.8011995935001199 0.6737974688055104 1.0000   
         C         C         1.0       0.10602947808036965           0.8284644637689537 0.6539907522979856 1.0000   
         C         C         1.0       0.061035985427569495          0.8139677383925266 0.6483566285346294 1.0000   
         C         C         1.0       0.045887597892026566          0.7703015203734139 0.6601632935928498 1.0000   
         C         C         1.0       0.0983094158964437  0.9130869201636632  0.6684895454629433 1.0000   
         C         C         1.0       0.055414831570193   0.929602028124377   0.6630745255001307 1.0000   
         C         C         1.0       0.031862990180414164          0.9531266414485563 0.6897987483443576 1.0000   
         C         C         1.0       0.04690034617815053           0.9521607488078655 0.7238888384810117 1.0000   
         C         C         1.0       0.0903937269379555  0.9364848910180422  0.7305618955776773 1.0000   
         C         C         1.0       0.11747112658912999           0.9182221835189934 0.7026119288526363 1.0000   
         C         C         1.0       0.20074116980190532           0.9297455372439234 0.644091131234917  1.0000   
         C         C         1.0       0.24636882689272355           0.9372281969534425 0.6391954774618632 1.0000   
         C         C         1.0       0.2726567206941042  0.9014184979357849  0.6282171391980038 1.0000   
         C         C         1.0       0.25226900534791286           0.8591600927694739 0.6194040918607076 1.0000   
         C         C         1.0       0.2051210115967669  0.8514324285189974  0.6248320005038852 1.0000   
         C         C         1.0       0.1786746777650054  0.8868138250662622  0.6398721861836026 1.0000   
         H         H         1.0       0.07573294093306293           0.870586717707214  0.4126547691756757 1.0000   
         H         H         1.0       0.022739094637552526          0.8298123307828877 0.5162013974864081 1.0000   
         H         H         1.0       0.9775151150706306  0.7727253639617682  0.48990535710526467          1.0000   
         H         H         1.0       0.02895452347286298           0.8120193209194633 0.3850259383007024 1.0000   
         H         H         1.0       0.9917762307195908  0.9063327744703361  0.5229082549163624 1.0000   
         H         H         1.0       0.9225884433860464  0.9485605221853033  0.5071857617575467 1.0000   
         H         H         1.0       0.996278994377741   0.026246292312815944         0.4258332102347569 1.0000   
         H         H         1.0       0.06485828700558184           0.9884930913315272 0.4423318294475109 1.0000   
         H         H         1.0       0.11039449813153067           0.8301631740125252 0.515935507231179  1.0000   
         H         H         1.0       0.11826623690144569           0.8135370906094629 0.5826619141280421 1.0000   
         H         H         1.0       0.10917522310224595           0.9622875154377242 0.6008454655600851 1.0000   
         H         H         1.0       0.08652816091184917           0.9751622478330256 0.5418912629655113 1.0000   
         H         H         1.0       0.1403471396614306  0.735180630751877   0.7021169707376381 1.0000   
         H         H         1.0       0.16650288892540693           0.8138773576378083 0.6835499393521677 1.0000   
         H         H         1.0       0.03826866804831397           0.8364003060250665 0.6320896252416531 1.0000   
         H         H         1.0       0.008991897073511002          0.7577983023409853 0.6584001984093706 1.0000   
         H         H         1.0       0.03790617701912824           0.9297021189246585 0.6361010064313125 1.0000   
         H         H         1.0       0.0004250484015295708         0.9718862810477437 0.6817099334096575 1.0000   
         H         H         1.0       0.1066556197688272  0.9362606356782444  0.7560899715702498 1.0000   
         H         H         1.0       0.1489777991531145  0.9004688658352974  0.7127250811069455 1.0000   
         H         H         1.0       0.17925014906387096           0.9578721301656151 0.6514858281753375 1.0000   
         H         H         1.0       0.25850948360274034           0.9720206078720426 0.6482831378819157 1.0000   
         H         H         1.0       0.27114338701764434           0.8286693824694311 0.6138825639822456 1.0000   
         H         H         1.0       0.18828179336108145           0.8183376231907401 0.6176473827440235 1.0000   
         C         C         1.0       0.16005770298596383           0.12366083349184866          0.7961272854481813 1.0000   
         C         C         1.0       0.1384752716080029  0.16260946518142774           0.8099101599893328 1.0000   
         C         C         1.0       0.1456801635574245  0.2057042991498299  0.7951000434257645 1.0000   
         C         C         1.0       0.1733387129807817  0.2144523704715793  0.7659051635979173 1.0000   
         C         C         1.0       0.19046206894237583           0.17436576603585247          0.7501413766544429 1.0000   
         C         C         1.0       0.18190653181754782           0.1297228908946025 0.7634074593037519 1.0000   
         H         H         1.0       0.11623539021370921           0.15602324333196851          0.832070821367052  1.0000   
         H         H         1.0       0.12898411549448985           0.2360395995045378 0.8079335158445388 1.0000   
         H         H         1.0       0.2124638846122866  0.18143091584323712           0.7268385469344272 1.0000   
         H         H         1.0       0.19561857250192544           0.09988510288506346          0.7496390407297957 1.0000   
         C         C         1.0       0.2700042363576208  0.25597989501410096           0.7510974098415187 1.0000   
         C         C         1.0       0.23288683760345438           0.27318091866064076          0.731346582256908  1.0000   
         C         C         1.0       0.24167602354185197           0.2995754612809635 0.7015357960321148 1.0000   
         C         C         1.0       0.2859107338075747  0.3076283778593627  0.6906548444670464 1.0000   
         C         C         1.0       0.3225883842325044  0.2901890938368621  0.7092952909255277 1.0000   
         C         C         1.0       0.3132115403894893  0.26357259025225893           0.7393797423133649 1.0000   
         C         C         1.0       0.18200075190846782           0.26905916369045296          0.7494568892474646 1.0000   
         C         C         1.0       0.18218735747864281           0.31407592444477117          0.7735890872093629 1.0000   
         C         C         1.0       0.17446032873315603           0.35960094807729587          0.7595563285440955 1.0000   
         C         C         1.0       0.18640594411999042           0.39948388446256367          0.7796577864874216 1.0000   
         C         C         1.0       0.20452286583875037           0.39559292095947884          0.8137289909671857 1.0000   
         C         C         1.0       0.2109612469776357  0.3525954536628964  0.8289790342877563 1.0000   
         C         C         1.0       0.1991649138033667  0.3119529383068621  0.8088480046266648 1.0000   
         C         C         1.0       0.14423898667454702           0.2364581179799481 0.6869178616394241 1.0000   
         C         C         1.0       0.10545279320822165           0.2190535504306243 0.6697435316229203 1.0000   
         C         C         1.0       0.06048453345111193           0.22823875243482308          0.6824544783109068 1.0000   
         C         C         1.0       0.059155124719132424          0.2586933261399292 0.7114854837223867 1.0000   
         C         C         1.0       0.09751964068732355           0.27742617914359313          0.7292053717107362 1.0000   
         C         C         1.0       0.14080365330719485           0.2633261678446483 0.717975294112321  1.0000   
         C         C         1.0       0.014620667325765169          0.1976904186809006 0.6700046988476663 1.0000   
         C         C         1.0       0.01254615554860794           0.18103335183804212          0.5512388415102236 1.0000   
         C         C         1.0       0.9856108892830775  0.15026538664586753           0.5726072494406996 1.0000   
         C         C         1.0       0.9897490003722559  0.15450071693687598           0.6102815505801777 1.0000   
         C         C         1.0       0.013649670700455419          0.19005313564357754          0.6263824981807672 1.0000   
         C         C         1.0       0.033207579800159426          0.22554933700437083          0.6042178717470588 1.0000   
         C         C         1.0       0.03600762005432512           0.21957347179872916          0.5663454563722236 1.0000   
         C         C         1.0       0.9676591211786234  0.22267904761177987           0.6782477950765413 1.0000   
         C         C         1.0       0.9279312475609183  0.19902089901671075           0.6913734153819259 1.0000   
         C         C         1.0       0.8896285268683928  0.22433688919961534           0.6959482251268738 1.0000   
         C         C         1.0       0.8909844593028602  0.27399882237131046           0.6911214541387443 1.0000   
         C         C         1.0       0.9301095532530161  0.29777769855214736           0.6788963782240542 1.0000   
         C         C         1.0       0.9657088724935843  0.271977463460766   0.6689958469974933 1.0000   
         C         C         1.0       0.044377975202093634          0.11265293135363612          0.6795023397655292 1.0000   
         C         C         1.0       0.05246323460215141           0.07213301450365928          0.6989623976891381 1.0000   
         C         C         1.0       0.042213324441783495          0.0717233463520317 0.7358096222476267 1.0000   
         C         C         1.0       0.019343109153077576          0.10972093462484399          0.7506909640383004 1.0000   
         C         C         1.0       0.00857813777467431           0.14871222002346174          0.7301100799853283 1.0000   
         C         C         1.0       0.022473007457142202          0.15171296037527177          0.6946139754114784 1.0000   
         H         H         1.0       0.2677634028483626  0.2364759196129515  0.7755679191921043 1.0000   
         H         H         1.0       0.2152263575402643  0.31613077781711396           0.6870140887221378 1.0000   
         H         H         1.0       0.2892810110781131  0.3343601490796686  0.6683273318657921 1.0000   
         H         H         1.0       0.3409851113831325  0.24883207905340102           0.755793490366989  1.0000   
         H         H         1.0       0.1659101094697032  0.36490049630458044           0.7319796231431277 1.0000   
         H         H         1.0       0.1858098939488372  0.4333389248144341  0.7651992434587099 1.0000   
         H         H         1.0       0.230036444768089   0.348879061479441   0.8558874902193245 1.0000   
         H         H         1.0       0.20631421452779866           0.2770173970717365 0.8221281670812154 1.0000   
         H         H         1.0       0.1774786441382053  0.22271879527899724           0.6776179611779125 1.0000   
         H         H         1.0       0.10994341119467377           0.1919667882236445 0.6482843497134279 1.0000   
         H         H         1.0       0.026181341975225703          0.2697533592698843 0.72423960650882   1.0000   
         H         H         1.0       0.09075433004178879           0.29740696765334634          0.7538881685414252 1.0000   
         H         H         1.0       0.9648935614264637  0.1254939946375818  0.559130680046449  1.0000   
         H         H         1.0       0.9713002990832439  0.13035227798469293           0.6293985430513919 1.0000   
         H         H         1.0       0.047617174681162666          0.2571685737318549 0.6155660804798866 1.0000   
         H         H         1.0       0.05623133663613222           0.2435720715943087 0.5498295801982366 1.0000   
         H         H         1.0       0.9269048502493061  0.16359331157382992           0.6996207060759639 1.0000   
         H         H         1.0       0.8620226402697384  0.2018029648999041  0.7093602442773302 1.0000   
         H         H         1.0       0.9305155621845994  0.336008184984407   0.6796248954337729 1.0000   
         H         H         1.0       0.9925324465164855  0.28913162788805036           0.6554751981425235 1.0000   
         H         H         1.0       0.054450949998052556          0.11406943533347794          0.6511187411029843 1.0000   
         H         H         1.0       0.07185481297521412           0.04388036566748111          0.6866229753228135 1.0000   
         H         H         1.0       0.010774066359334979          0.1101061186472719 0.7794952237947202 1.0000   
         H         H         1.0       0.9988839942334763  0.1797151538877397  0.746153295262018  1.0000   
         C         C         1.0       0.1970403582545176  0.9394506616651186  0.3513897278671357 1.0000   
         C         C         1.0       0.2042325368178381  0.8945998070198133  0.33629126498841966          1.0000   
         C         C         1.0       0.1685846358542219  0.8737404800274381  0.31846867997966194          1.0000   
         C         C         1.0       0.125223648116349   0.893356463863284   0.316817576072683  1.0000   
         C         C         1.0       0.12077640024471266           0.9381479832200298 0.32827820263867546          1.0000   
         C         C         1.0       0.15647064414986864           0.9614588530998538 0.3452219353410725 1.0000   
         H         H         1.0       0.23373681033724805           0.8734245709079106 0.3394006510942025 1.0000   
         H         H         1.0       0.1781146932219449  0.8379997774667003  0.3089440214905583 1.0000   
         H         H         1.0       0.08917854499740813           0.9592880681506378 0.3232504306722743 1.0000   
         H         H         1.0       0.155171484454042   0.9992460713018843  0.35365250930700487          1.0000   
         C         C         1.0       0.024914584720441283          0.890913514753272  0.33928254169324973          1.0000   
         C         C         1.0       0.036041420335392926          0.8880160655696169 0.30292057299619884          1.0000   
         C         C         1.0       0.004019569617758512          0.9018356980330814 0.27630025645331147          1.0000   
         C         C         1.0       0.9621737720896888  0.9188123589287932  0.2859373951038336 1.0000   
         C         C         1.0       0.9508465718253176  0.9204627763753891  0.3218169647411644 1.0000   
         C         C         1.0       0.9856206575392251  0.913489549240746   0.3474379973583595 1.0000   
         C         C         1.0       0.08408625575346772           0.8659057634208387 0.29383910123338863          1.0000   
         C         C         1.0       0.07428156760315187           0.8105197774240279 0.30210587442941306          1.0000   
         C         C         1.0       0.04245825749627219           0.7848312653520805 0.28159758082863134          1.0000   
         C         C         1.0       0.03135590654693199           0.7377904128061122 0.2862719275106055 1.0000   
         C         C         1.0       0.05799101198514234           0.7119933525807388 0.31110321989344414          1.0000   
         C         C         1.0       0.08918900119251494           0.7367258728747713 0.3332629792787246 1.0000   
         C         C         1.0       0.09356134679601547           0.7850802036812433 0.3298340195503196 1.0000   
         C         C         1.0       0.10522556426823719           0.9198133346125366 0.2388433754994617 1.0000   
         C         C         1.0       0.10792948003427981           0.9263091415361588 0.20165768240151508          1.0000   
         C         C         1.0       0.11279116865245906           0.8892707710151599 0.17876798858061377          1.0000   
         C         C         1.0       0.11974065994395894           0.8445419886620548 0.19362065684244942          1.0000   
         C         C         1.0       0.11699492993813364           0.8380709985283188 0.2312068256750481 1.0000   
         C         C         1.0       0.10428403570467075           0.8748057130944642 0.25397161116192657          1.0000   
         C         C         1.0       0.09815648611964443           0.8938776115354323 0.13656615740147848          1.0000   
         C         C         1.0       0.02134323011903283           0.020444678202695687         0.14121888559031165          1.0000   
         C         C         1.0       0.04397879043083753           0.010213904163471232         0.10936068018987671          1.0000   
         C         C         1.0       0.06460781636116408           0.9676879549706646 0.10486410916850872          1.0000   
         C         C         1.0       0.05896026774691877           0.933084340873509  0.1322441003720485 1.0000   
         C         C         1.0       0.023207446104211996          0.9399344931299973 0.15605259548721226          1.0000   
         C         C         1.0       0.008184629282915523          0.9833586015472937 0.16247115692415454          1.0000   
         C         C         1.0       0.06840262979392354           0.8521116185425915 0.1200992788824003 1.0000   
         C         C         1.0       0.03998821972233114           0.8252180497674518 0.14172769434142227          1.0000   
         C         C         1.0       0.015173062727407816          0.7888093916621342 0.12782037593681359          1.0000   
         C         C         1.0       0.016682910424403286          0.7786271810837867 0.09227990625360408          1.0000   
         C         C         1.0       0.04322188007991623           0.8047872843175266 0.06949648872821683          1.0000   
         C         C         1.0       0.06948768055787215           0.8409468597699473 0.08327530197633744          1.0000   
         C         C         1.0       0.17155531682836006           0.8698130771032536 0.10321712964532052          1.0000   
         C         C         1.0       0.21169139860135366           0.8807325320023089 0.08618192683843404          1.0000   
         C         C         1.0       0.2302998332854326  0.9264522322520715  0.08249056569098977          1.0000   
         C         C         1.0       0.2051268470800621  0.9605092735835292  0.10014338501242963          1.0000   
         C         C         1.0       0.1655860893878206  0.9511369908331403  0.11865232180399725          1.0000   
         C         C         1.0       0.14774488497549532           0.9049460168369629 0.12072100453951518          1.0000   
         H         H         1.0       0.04904949081807964           0.8852227469261746 0.35899678929851264          1.0000   
         H         H         1.0       0.010356583404041553          0.8956544126203739 0.24819330819096871          1.0000   
         H         H         1.0       0.9388263680932024  0.9317689687177378  0.26412870770721353          1.0000   
         H         H         1.0       0.9768065367683668  0.9155285857788997  0.3759939441914067 1.0000   
         H         H         1.0       0.021800416849110604          0.8064671382450866 0.2619845187770485 1.0000   
         H         H         1.0       0.005269657644859649          0.719972187784864  0.27145799352659344          1.0000   
         H         H         1.0       0.10839843175287811           0.7164558403594815 0.35168626364591854          1.0000   
         H         H         1.0       0.11636511125243723           0.8053994947514346 0.347902575696236  1.0000   
         H         H         1.0       0.10576647057354809           0.9516499706920546 0.2552975556700371 1.0000   
         H         H         1.0       0.10964628021676437           0.9587581858414527 0.18865018529858382          1.0000   
         H         H         1.0       0.12320408007104128           0.8130390441728116 0.17595967733368992          1.0000   
         H         H         1.0       0.12141659025502347           0.8032245865121125 0.23931962072942756          1.0000   
         H         H         1.0       0.05644706116824083           0.040504454808962365         0.0936610571040634 1.0000   
         H         H         1.0       0.08585730494983154           0.9627848025053302 0.08125584420785696          1.0000   
         H         H         1.0       0.013095479510381702          0.9152829772280574 0.17598298233475776          1.0000   
         H         H         1.0       0.9903628990253603  0.9891944063651668  0.18875553669564984          1.0000   
         H         H         1.0       0.03677957490002015           0.8337919137590409 0.17009641275975648          1.0000   
         H         H         1.0       0.9892144253010091  0.7688907635044846  0.14660894699563462          1.0000   
         H         H         1.0       0.04629407876948277           0.7910342430804396 0.04234913845699598          1.0000   
         H         H         1.0       0.09549705941678009           0.8579748669253711 0.06633326955590009          1.0000   
         H         H         1.0       0.1645393874159911  0.8338574860799466  0.10910799135173285          1.0000   
         H         H         1.0       0.23118632878058196           0.8484597933359778 0.07866056584020273          1.0000   
         H         H         1.0       0.21793308818837695           0.995355505490783  0.10186389503849434          1.0000   
         H         H         1.0       0.1469384416043862  0.9792642658061004  0.13110900707923637          1.0000   
         C         C         1.0       0.11807910057343507           0.4759675768812708 0.0811603891354924 1.0000   
         C         C         1.0       0.13247726948489202           0.4970360632973882 0.0490760482749264 1.0000   
         C         C         1.0       0.12718575698284226           0.47428718220182586          0.0171521738478444 1.0000   
         C         C         1.0       0.10572336134897715           0.429535837302418  0.015819719640678853         1.0000   
         C         C         1.0       0.09690900752893576           0.40740717650867825          0.04866086402729497          1.0000   
         C         C         1.0       0.10047169530396699           0.4293257368586695 0.0817023362703293 1.0000   
         H         H         1.0       0.1478167546278375  0.533332938360408   0.04737505164152389          1.0000   
         H         H         1.0       0.13700508678358114           0.49194989202469   0.9921441631144737 1.0000   
         H         H         1.0       0.08890896950083482           0.37038711538613417          0.048882170238410794         1.0000   
         H         H         1.0       0.09111483739683718           0.40895457548912045          0.104756591381727  1.0000   
         C         C         1.0       0.11674686179112315           0.32186286054694785          0.9931708291020851 1.0000   
         C         C         1.0       0.08271296407113589           0.34974981557998447          0.9776390242064846 1.0000   
         C         C         1.0       0.04825725076428578           0.32603621113037584          0.9552063238772471 1.0000   
         C         C         1.0       0.04797641355199645           0.2781673957347359 0.9494677087072566 1.0000   
         C         C         1.0       0.0830203333988207  0.2534373395988378  0.963780845080058  1.0000   
         C         C         1.0       0.11556720169730667           0.2746507097019963 0.98597002976345   1.0000   
         C         C         1.0       0.08344542744168205           0.4071305502013225 0.9805042712754904 1.0000   
         C         C         1.0       0.10912971435297616           0.42072505467518173          0.9434668093668386 1.0000   
         C         C         1.0       0.08808821662853786           0.42699265587641333          0.9094371771703136 1.0000   
         C         C         1.0       0.11373620647137475           0.44228457112534625          0.8801935570268976 1.0000   
         C         C         1.0       0.16081954191706666           0.44845117151223424          0.8826428213915252 1.0000   
         C         C         1.0       0.18286023524692904           0.43736795418240054          0.9142691983566175 1.0000   
         C         C         1.0       0.15748888154971508           0.42118580282490364          0.943100157186091  1.0000   
         C         C         1.0       0.002614265491223568          0.4048966125449325 0.006887089999783269         1.0000   
         C         C         1.0       0.9694336669269077  0.43110189323498876           0.025943373258288993         1.0000   
         C         C         1.0       0.9650744470733498  0.4785572481250907  0.020605838806442955         1.0000   
         C         C         1.0       0.9912331403724827  0.4980734371311939  0.9920521039444512 1.0000   
         C         C         1.0       0.024417772720916053          0.47365683176647466          0.9748222260935424 1.0000   
         C         C         1.0       0.033566458240350545          0.4271322323896263 0.9840301004134431 1.0000   
         C         C         1.0       0.9304205793630703  0.5055797329398881  0.04542248441118447          1.0000   
         C         C         1.0       0.9181667152679853  0.48249602079492115           0.16080340668161416          1.0000   
         C         C         1.0       0.9593653160553308  0.47469433231828245           0.14287555539984811          1.0000   
         C         C         1.0       0.9628251804401866  0.47376341802834837           0.105629367607359  1.0000   
         C         C         1.0       0.9226445528240824  0.4825920720588841  0.08460974651597185          1.0000   
         C         C         1.0       0.8817062086426595  0.48598163106737735           0.10378572570590405          1.0000   
         C         C         1.0       0.8782395812695513  0.4852339739858746  0.14133968231225252          1.0000   
         C         C         1.0       0.8866684868519455  0.5061493491227262  0.018708200575536793         1.0000   
         C         C         1.0       0.8826152580968197  0.5376503296158338  0.9910085862173044 1.0000   
         C         C         1.0       0.8408984789592153  0.5450721974962959  0.973041416871306  1.0000   
         C         C         1.0       0.8022059149008307  0.5213558935609149  0.9846733454717082 1.0000   
         C         C         1.0       0.8067794279861156  0.4846499288283131  0.007941391564946443         1.0000   
         C         C         1.0       0.848958189127183   0.4761822037591752  0.022928150254395208         1.0000   
         C         C         1.0       0.923422426131625   0.5918138491734917  0.060676999286587804         1.0000   
         C         C         1.0       0.9404491982644394  0.6353966500981223  0.07079688716734997          1.0000   
         C         C         1.0       0.9873034454547253  0.6421293934336394  0.07481504762167708          1.0000   
         C         C         1.0       0.016159980582031386          0.6058352737014278 0.06914636981847788          1.0000   
         C         C         1.0       0.9986279201870844  0.5621065269516061  0.06150156887550743          1.0000   
         C         C         1.0       0.9528037305955029  0.5537773607765513  0.05553403183216242          1.0000   
         H         H         1.0       0.1454625705296704  0.3355878693350995  0.008516688091045  1.0000   
         H         H         1.0       0.026133256792334917          0.3470031171092588 0.9422299892821504 1.0000   
         H         H         1.0       0.023250702288202033          0.2597901073399627 0.9305567038273567 1.0000   
         H         H         1.0       0.1421136586791345  0.25135716008324943           0.9961395375259213 1.0000   
         H         H         1.0       0.05140507850913179           0.4292568735012251 0.9087202249565131 1.0000   
         H         H         1.0       0.0956425635797279  0.4474040284276017  0.8565504110023157 1.0000   
         H         H         1.0       0.21911335386092984           0.44005642946201573          0.9173923391840889 1.0000   
         H         H         1.0       0.1759306743639816  0.4113803087965203  0.9680983274413413 1.0000   
         H         H         1.0       0.008773690030693617          0.36823972793961307          0.012757402570483078         1.0000   
         H         H         1.0       0.9470383265112859  0.41229148699238555           0.04583944741452636          1.0000   
         H         H         1.0       0.9882192585190966  0.5362098720355137  0.9859694433704452 1.0000   
         H         H         1.0       0.04893423402038044           0.4990347422905088 0.9611702714722293 1.0000   
         H         H         1.0       0.9909207594469047  0.46291582515999724           0.15664101976088707          1.0000   
         H         H         1.0       0.9951845630509193  0.45898247067321496           0.09652230508305527          1.0000   
         H         H         1.0       0.8517500258099923  0.4993295673483436  0.08956794553576031          1.0000   
         H         H         1.0       0.845357539864081   0.4930359407317215  0.15428597132520916          1.0000   
         H         H         1.0       0.9067676247671375  0.5650073383316054  0.982537472118203  1.0000   
         H         H         1.0       0.8404856383211489  0.5718630674911265  0.9535727906781124 1.0000   
         H         H         1.0       0.7764364871897383  0.46457823224317757           0.015344136043835555         1.0000   
         H         H         1.0       0.8528773918419443  0.4458619829532993  0.041331239727538646         1.0000   
         H         H         1.0       0.8857338020929351  0.5873307449348014  0.057955874468805284         1.0000   
         H         H         1.0       0.9186313054942188  0.6654003878413292  0.07859312235232271          1.0000   
         H         H         1.0       0.05179490602347836           0.607417084106301  0.07783079431712124          1.0000   
         H         H         1.0       0.022505143082123702          0.5336009461449254 0.05991309943544542          1.0000   
         C         C         1.0       0.7615843764451997  0.4985817033220523  0.295648948947874  1.0000   
         C         C         1.0       0.7477553634103019  0.5445897833424643  0.3027364667184698 1.0000   
         C         C         1.0       0.7703861698519642  0.5826613256009799  0.290031744085516  1.0000   
         C         C         1.0       0.8140678194628921  0.5756814368390155  0.2736883935447429 1.0000   
         C         C         1.0       0.8279827489878905  0.5289305175169684  0.26700393867827954          1.0000   
         C         C         1.0       0.8012012180372383  0.4923749466647793  0.27602833731122056          1.0000   
         H         H         1.0       0.7198581246653031  0.5481742568926996  0.3214109299413416 1.0000   
         H         H         1.0       0.7576755290760543  0.6169793989357262  0.29940396577177686          1.0000   
         H         H         1.0       0.8604334018803322  0.5218275113724345  0.2523692461182579 1.0000   
         H         H         1.0       0.8133025160727455  0.4567719915318442  0.27336616730326563          1.0000   
         C         C         1.0       0.9239075137727794  0.5817011630083943  0.2865734560845341 1.0000   
         C         C         1.0       0.9012387710076596  0.610213017795971   0.2616461005733557 1.0000   
         C         C         1.0       0.9278680958160975  0.6348336283781334  0.23737322607973868          1.0000   
         C         C         1.0       0.9743204127140757  0.6445370903025712  0.24166523089496794          1.0000   
         C         C         1.0       0.9980773039018929  0.6213612396540363  0.2700161748255171 1.0000   
         C         C         1.0       0.971462088796722   0.5897443466885635  0.2925449638284565 1.0000   
         C         C         1.0       0.8457892054445453  0.6190587985656246  0.25954910521821006          1.0000   
         C         C         1.0       0.8431877297993486  0.6638617109472608  0.28877745748221334          1.0000   
         C         C         1.0       0.8592439199177377  0.7085315729220826  0.2772529541008219 1.0000   
         C         C         1.0       0.8598992917306689  0.746440977911303   0.3001298172428064 1.0000   
         C         C         1.0       0.8476152499103385  0.7410463358346167  0.33585009837015156          1.0000   
         C         C         1.0       0.8359245680077432  0.6971563672665154  0.3476672523472854 1.0000   
         C         C         1.0       0.8396591229461188  0.6580975538881748  0.3263922483762807 1.0000   
         C         C         1.0       0.8323689229087526  0.602299035681489   0.1923794648560491 1.0000   
         C         C         1.0       0.8007085569935803  0.5977147719388093  0.16484961151042904          1.0000   
         C         C         1.0       0.7598618264168463  0.6213732245147034  0.16611894138556788          1.0000   
         C         C         1.0       0.7547528776314901  0.6548060746158595  0.19336082473868024          1.0000   
         C         C         1.0       0.7857205599202238  0.6580484447910651  0.2212844583372163 1.0000   
         C         C         1.0       0.8199320048817459  0.6278042704368528  0.22346622532604682          1.0000   
         C         C         1.0       0.715105725297894   0.6065970000775135  0.14149827818255678          1.0000   
         C         C         1.0       0.7359500171697703  0.5977533875684833  0.023626656239261967         1.0000   
         C         C         1.0       0.694709484283678   0.5845098873220104  0.03763645214140058          1.0000   
         C         C         1.0       0.6877422153469933  0.5911653242983347  0.07483475024538318          1.0000   
         C         C         1.0       0.722682584267342   0.6088920748719673  0.09775462515766348          1.0000   
         C         C         1.0       0.7603297068279582  0.6278591330113141  0.08135943232604419          1.0000   
         C         C         1.0       0.7697697161369605  0.6197146678935603  0.04526530244962024          1.0000   
         C         C         1.0       0.6721634511476942  0.6400240725207245  0.14764689312701915          1.0000   
         C         C         1.0       0.6764672792039751  0.6897819726553533  0.1388383846814946 1.0000   
         C         C         1.0       0.6526831806745869  0.7216803327776671  0.1575117078589025 1.0000   
         C         C         1.0       0.6175501445655517  0.707022980613347   0.1821900211007051 1.0000   
         C         C         1.0       0.6101026449601167  0.6587035015103494  0.1860472576560774 1.0000   
         C         C         1.0       0.6333738735197474  0.626047619831873   0.16736720308474048          1.0000   
         C         C         1.0       0.6906926311903264  0.5469215141618475  0.19303437862921594          1.0000   
         C         C         1.0       0.6815144462926714  0.5017550939801946  0.20559552465530653          1.0000   
         C         C         1.0       0.6881880303899574  0.46318293522360166           0.1841278202714234 1.0000   
         C         C         1.0       0.7076957207792811  0.46833796299258845           0.1512299453924121 1.0000   
         C         C         1.0       0.7134279535557123  0.5139639615196459  0.136654915405852  1.0000   
         C         C         1.0       0.7040089487305689  0.5540715479991244  0.1566008478940716 1.0000   
         H         H         1.0       0.9060685456324804  0.555815709786008   0.30515026021244657          1.0000   
         H         H         1.0       0.9136587864801811  0.6562723658783456  0.21847043126440194          1.0000   
         H         H         1.0       0.9898927530913436  0.6683457495584272  0.22152036390986088          1.0000   
         H         H         1.0       0.9884741184680973  0.5700446171087148  0.31357921878802103          1.0000   
         H         H         1.0       0.8658167550650109  0.714971001719652   0.2478810266147124 1.0000   
         H         H         1.0       0.8691119930656495  0.779848711961678   0.2917019045749424 1.0000   
         H         H         1.0       0.821644217865211   0.6937339135518861  0.3754067361637379 1.0000   
         H         H         1.0       0.828611791248469   0.624851877060809   0.3398889838503258 1.0000   
         H         H         1.0       0.8643747474613787  0.5803119479857065  0.1923802489044598 1.0000   
         H         H         1.0       0.8102993104753475  0.5768946938490173  0.14108238603793902          1.0000   
         H         H         1.0       0.7236243077000055  0.6757520292400233  0.1956047662202262 1.0000   
         H         H         1.0       0.7811404248635841  0.6860011870197393  0.23956215875260295          1.0000   
         H         H         1.0       0.6713491352071631  0.5671375222040571  0.020260341030894358         1.0000   
         H         H         1.0       0.6551564089909985  0.580140383207998   0.08552211723452219          1.0000   
         H         H         1.0       0.7899614620269249  0.6462695015586111  0.09464430114306861          1.0000   
         H         H         1.0       0.7993937916272945  0.6335396363585718  0.034182109533145155         1.0000   
         H         H         1.0       0.7064974389918469  0.7017472272322116  0.12316169329478598          1.0000   
         H         H         1.0       0.6663063722096408  0.7585304892868848  0.1575546832452811 1.0000   
         H         H         1.0       0.5844174087948435  0.6450394946152818  0.20269038805840428          1.0000   
         H         H         1.0       0.6204137582291714  0.5894675049373792  0.16967748799603402          1.0000   
         H         H         1.0       0.7004163152967133  0.5741305623686861  0.21285449455374345          1.0000   
         H         H         1.0       0.6813882516612183  0.5007395720468408  0.23510153970329237          1.0000   
         H         H         1.0       0.7192467404932044  0.4385778584582017  0.1355933361183222 1.0000   
         H         H         1.0       0.727633460663668   0.5116285336546079  0.10896833077392902          1.0000   
         C         C         1.0       0.44944891618053673           0.5007744243968956 0.12085016842718654          1.0000   
         C         C         1.0       0.44496327460712165           0.5022891705801367 0.08343582891555834          1.0000   
         C         C         1.0       0.4063228375504813  0.5237292860643976  0.06872213351308454          1.0000   
         C         C         1.0       0.3716429404245775  0.5381401165887055  0.09087546255341161          1.0000   
         C         C         1.0       0.3783990187893703  0.5373002819237015  0.12756289703976287          1.0000   
         C         C         1.0       0.4177324738977233  0.5187295076853333  0.14279472081473732          1.0000   
         H         H         1.0       0.46944784160382425           0.4876852322782754 0.06652178628217942          1.0000   
         H         H         1.0       0.40748906951743186           0.5284810461228054 0.038897395228679965         1.0000   
         H         H         1.0       0.35363460080239717           0.547200240365963  0.14736213270748166          1.0000   
         H         H         1.0       0.4275336937413321  0.5214027617616558  0.17094805047179484          1.0000   
         C         C         1.0       0.26984310769427855           0.5085090436316282 0.10488012644751832          1.0000   
         C         C         1.0       0.27955217765380336           0.5549477298239536 0.0933290043354551 1.0000   
         C         C         1.0       0.248480728474502   0.5888368188239046  0.09818166068765688          1.0000   
         C         C         1.0       0.20708832284009446           0.5779275444941254 0.11436474009167452          1.0000   
         C         C         1.0       0.1988190338087674  0.5333140256829015  0.12677700642145506          1.0000   
         C         C         1.0       0.22930485844056414           0.4974395492509718 0.12043892071317575          1.0000   
         C         C         1.0       0.32827007216257864           0.5652333464745387 0.07357228253893133          1.0000   
         C         C         1.0       0.3110711819768266  0.5535838221919321  0.03342255120107285          1.0000   
         C         C         1.0       0.2866617068121862  0.5864449968995746  0.013711521531969417         1.0000   
         C         C         1.0       0.27370353426245675           0.578178884353178  0.9790493910999227 1.0000   
         C         C         1.0       0.2854817337261647  0.5354882418751822  0.9633284565870266 1.0000   
         C         C         1.0       0.3046122833261269  0.5013071485695337  0.9846156141179222 1.0000   
         C         C         1.0       0.31903050162053653           0.5101159310314186 0.019443066100789164         1.0000   
         C         C         1.0       0.3472072266305812  0.6442716995871093  0.1067062318195635 1.0000   
         C         C         1.0       0.3696821473045605  0.6884829241397533  0.1104487986601328 1.0000   
         C         C         1.0       0.39219195801709694           0.7072528880342672 0.08122065065269102          1.0000   
         C         C         1.0       0.393220662538965   0.6841567267788611  0.04855895609990424          1.0000   
         C         C         1.0       0.37525500479293117           0.6387819932561454 0.04651271294985726          1.0000   
         C         C         1.0       0.34924875138529776           0.6179744467505893 0.0757206170614324 1.0000   
         C         C         1.0       0.4252668545158376  0.7546761925952146  0.08947624282200126          1.0000   
         C         C         1.0       0.3343576174967808  0.8786949676010261  0.07869245622060896          1.0000   
         C         C         1.0       0.3445494628080021  0.8584834262755869  0.11151576800274368          1.0000   
         C         C         1.0       0.36657804925473125           0.8166071828975847 0.11506058659803704          1.0000   
         C         C         1.0       0.3869534877909884  0.7958811238626461  0.08620237058626377          1.0000   
         C         C         1.0       0.3731022699657719  0.8143043220999597  0.05186730939420133          1.0000   
         C         C         1.0       0.34658993789639786           0.8537386876586521 0.0480760583129298 1.0000   
         C         C         1.0       0.46979397499562897           0.7584497738457623 0.0634065800051899 1.0000   
         C         C         1.0       0.4950386422759113  0.7219952675331065  0.04839359807981366          1.0000   
         C         C         1.0       0.5310987900556668  0.7337560745005552  0.027248815821556915         1.0000   
         C         C         1.0       0.5444603368708755  0.7803347945012343  0.018836616624118507         1.0000   
         C         C         1.0       0.523771778483972   0.8161970969562309  0.037382403397805714         1.0000   
         C         C         1.0       0.4878886657091269  0.8052079333643674  0.060891365303929766         1.0000   
         C         C         1.0       0.4675339611294275  0.792849826161472   0.1483476248859725 1.0000   
         C         C         1.0       0.4967479706515768  0.7892109108466697  0.17684611753466406          1.0000   
         C         C         1.0       0.5128381029610086  0.7460912455028406  0.1874713539224345 1.0000   
         C         C         1.0       0.5012057571043584  0.7072504312723322  0.16750341947307504          1.0000   
         C         C         1.0       0.47408215694700473           0.709228690911093  0.13754089687334117          1.0000   
         C         C         1.0       0.45647521832191407           0.752823936557627  0.12699533830339066          1.0000   
         H         H         1.0       0.2914457088222644  0.47977257475775603           0.10357512201286956          1.0000   
         H         H         1.0       0.2562566628762622  0.625479270095051   0.08824506907457974          1.0000   
         H         H         1.0       0.18058945662898135           0.6025605253850964 0.11843009718537757          1.0000   
         H         H         1.0       0.2213608837899667  0.4620101541901001  0.1251534047092706 1.0000   
         H         H         1.0       0.2814944272730597  0.6191114347493233  0.025668643261459012         1.0000   
         H         H         1.0       0.2556459840841377  0.6047848539023434  0.961125782306751  1.0000   
         H         H         1.0       0.31227215591932933           0.4680505762016434 0.9701398539381597 1.0000   
         H         H         1.0       0.3379324316184663  0.48332891553667084           0.03479513433297554          1.0000   
         H         H         1.0       0.33078574306072345           0.6250996506234007 0.1288568203980876 1.0000   
         H         H         1.0       0.3706576573598742  0.7061229204038294  0.13807085186665502          1.0000   
         H         H         1.0       0.4075336068051796  0.6983946921787907  0.024737337939463755         1.0000   
         H         H         1.0       0.38022061960943176           0.6207412289677761 0.02107512853372695          1.0000   
         H         H         1.0       0.3401060813753398  0.8789996626371305  0.13535148471431804          1.0000   
         H         H         1.0       0.37384802519175925           0.8055472970752281 0.14264892924151706          1.0000   
         H         H         1.0       0.388433271782631   0.7978416997142687  0.027324672719595267         1.0000   
         H         H         1.0       0.34444607534426996           0.8698280217601058 0.021747289560884786         1.0000   
         H         H         1.0       0.48510964350696517           0.6865023660326308 0.05271870857863741          1.0000   
         H         H         1.0       0.5513805449379977  0.7054268893084874  0.019612888979111842         1.0000   
         H         H         1.0       0.537463287321486   0.8520591205252439  0.03402165365927634          1.0000   
         H         H         1.0       0.4726823603603181  0.8331245300466822  0.07384837412150173          1.0000   
         H         H         1.0       0.45469333625546077           0.8274340720486878 0.1439815299553692 1.0000   
         H         H         1.0       0.5031252920131579  0.821276803748981   0.18895325706433883          1.0000   
         H         H         1.0       0.5147791807241334  0.6731849305457298  0.17676689706405602          1.0000   
         H         H         1.0       0.47145659663963685           0.6766152524497003 0.1219247575497663 1.0000   
         C         C         1.0       0.9088849078325062  0.2928469143841589  0.3499770550127895 1.0000   
         C         C         1.0       0.9213105589278053  0.24887400832176984           0.3620497733281346 1.0000   
         C         C         1.0       0.9053675886561396  0.20847238891367728           0.34416243616087233          1.0000   
         C         C         1.0       0.8779673924758981  0.21017538078156636           0.3137273894115443 1.0000   
         C         C         1.0       0.8666205307056687  0.2553573027868883  0.30180723698178796          1.0000   
         C         C         1.0       0.8779519532070145  0.29501888048343655           0.32194420160167936          1.0000   
         H         H         1.0       0.940580946580458   0.24445202264899515           0.38714179777141833          1.0000   
         H         H         1.0       0.9157301490516657  0.17694924631300302           0.3563339888439648 1.0000   
         H         H         1.0       0.844051372397706   0.2560207378961311  0.2793130222605246 1.0000   
         H         H         1.0       0.8630347029443842  0.3275201643665306  0.31470406202787055          1.0000   
         C         C         1.0       0.7800118601573884  0.18123937316753935           0.29240143917879946          1.0000   
         C         C         1.0       0.8150970353762956  0.1578976990863939  0.27447882246970556          1.0000   
         C         C         1.0       0.8009273486385509  0.12706072851556766           0.24862404184252934          1.0000   
         C         C         1.0       0.7569195604586907  0.11412959099905096           0.24164286191962217          1.0000   
         C         C         1.0       0.7226580038523888  0.13727535486970877           0.2583788384481763 1.0000   
         C         C         1.0       0.7338386527095712  0.1701120545976242  0.2856197645195284 1.0000   
         C         C         1.0       0.8677721866931253  0.16556077070119504           0.2881819229253855 1.0000   
         C         C         1.0       0.8760006495424186  0.11492161728063775           0.3076990365340801 1.0000   
         C         C         1.0       0.8956503494059248  0.07764363671134432           0.2885203875903941 1.0000   
         C         C         1.0       0.9040487132892301  0.03497114965929282           0.304084645080193  1.0000   
         C         C         1.0       0.8870987431183954  0.026303722733893142         0.3386083771967711 1.0000   
         C         C         1.0       0.8623920279449493  0.06022675368839359           0.35679550190399234          1.0000   
         C         C         1.0       0.8606213293625745  0.10401047834052299           0.3424301419000286 1.0000   
         C         C         1.0       0.8897053552875926  0.19619977754703422           0.2255553441646337 1.0000   
         C         C         1.0       0.9214610561035658  0.21429108562576543           0.20143265676207656          1.0000   
         C         C         1.0       0.9661604159430288  0.22523384858679524           0.21314178504015274          1.0000   
         C         C         1.0       0.9794836447168119  0.2039363704570866  0.2444218038848317 1.0000   
         C         C         1.0       0.9498819429276637  0.17590397005457364           0.26506153997178   1.0000   
         C         C         1.0       0.9027813501990085  0.1768608230434141  0.2582434900127433 1.0000   
         C         C         1.0       0.9927236512149185  0.2638836362283671  0.18855916793096178          1.0000   
         C         C         1.0       0.9990573375535683  0.23553335378912843           0.07136207040096701          1.0000   
         C         C         1.0       0.018490168348931357          0.2779480020216745 0.08469992886552986          1.0000   
         C         C         1.0       0.013183115633312648          0.2868432278840313 0.12211683242410908          1.0000   
         C         C         1.0       0.9970801150725507  0.25179473804487773           0.1453363934354952 1.0000   
         C         C         1.0       0.9823538789169916  0.20934384171272463           0.1306252257948877 1.0000   
         C         C         1.0       0.9786295585535539  0.20418197389956386           0.09462138834551678          1.0000   
         C         C         1.0       0.047604029423538696          0.2692388854571621 0.19687790701463392          1.0000   
         C         C         1.0       0.07299317559387641           0.22978442248592026          0.2046661766589819 1.0000   
         C         C         1.0       0.11906526749170543           0.2360756648092568 0.21447844436892705          1.0000   
         C         C         1.0       0.1400686725554945  0.2800477908499015  0.21782442350567588          1.0000   
         C         C         1.0       0.11474775476663779           0.32083940725336846          0.20756749075577544          1.0000   
         C         C         1.0       0.0705333593177977  0.31332568362463364           0.19624891574714962          1.0000   
         C         C         1.0       0.9691722697775994  0.3297245265331637  0.23270322448491965          1.0000   
         C         C         1.0       0.9493016203542622  0.3713125301985133  0.24044563402242078          1.0000   
         C         C         1.0       0.9201117718832504  0.3931033582343031  0.2148673596838218 1.0000   
         C         C         1.0       0.9081463037722132  0.3670362003033059  0.184537922999843  1.0000   
         C         C         1.0       0.9309171524115692  0.3263601643311623  0.17680667580457263          1.0000   
         C         C         1.0       0.9656329629751068  0.3099980401513528  0.19851006247812356          1.0000   
         H         H         1.0       0.790035476147473   0.20300291408859597           0.3134246233313056 1.0000   
         H         H         1.0       0.8291981255445487  0.1069057736833543  0.23709306020725557          1.0000   
         H         H         1.0       0.7512765400726611  0.08617107473385399           0.22205258345698303          1.0000   
         H         H         1.0       0.7113862436818128  0.18367981885744028           0.30660203645608786          1.0000   
         H         H         1.0       0.9073498529198315  0.08079304766612543           0.2604124543226211 1.0000   
         H         H         1.0       0.9271693470549527  0.010692887942707507         0.28812073579579905          1.0000   
         H         H         1.0       0.8538813718123879  0.05797461086946676           0.3858668927249178 1.0000   
         H         H         1.0       0.8426888193240147  0.12846421353497037           0.35686062620031644          1.0000   
         H         H         1.0       0.8540019352316561  0.19420865492955944           0.21696150456687913          1.0000   
         H         H         1.0       0.9080910726262974  0.2237476786240025  0.17517862510189597          1.0000   
         H         H         1.0       0.009661494756428413          0.21721507315235883          0.25564853251032066          1.0000   
         H         H         1.0       0.9638594015035415  0.16756965552650904           0.29265780462472163          1.0000   
         H         H         1.0       0.033401144808746785          0.30338979460870835          0.06476706868873716          1.0000   
         H         H         1.0       0.024664872382063496          0.32099953080234156          0.13289700711262134          1.0000   
         H         H         1.0       0.9709687995864547  0.17959702128144803           0.14738042779286234          1.0000   
         H         H         1.0       0.9603503038862713  0.17409801028169847           0.08492564382148735          1.0000   
         H         H         1.0       0.057214396705681736          0.19350166267872196          0.20402746604596417          1.0000   
         H         H         1.0       0.13403098364677057           0.20405876291008962          0.22393260082239588          1.0000   
         H         H         1.0       0.12956850637883166           0.354762389380624  0.20977688768233962          1.0000   
         H         H         1.0       0.051432089987967666          0.34761903806863387          0.19309065929772048          1.0000   
         H         H         1.0       0.9889657548009629  0.31434064895398306           0.253945589340592  1.0000   
         H         H         1.0       0.9552796355863777  0.38850447729149296           0.2658932590775118 1.0000   
         H         H         1.0       0.8824386562839965  0.3800542415618494  0.1656546781214926 1.0000   
         H         H         1.0       0.9232999508531697  0.30977471110661015           0.15091348921309425          1.0000   
         C         C         1.0       0.16981575169462737           0.1777180800059669 0.9387982239194677 1.0000   
         C         C         1.0       0.17398137386527787           0.12861442196255615          0.9452989170834665 1.0000   
         C         C         1.0       0.21460541987469292           0.11075985507565887          0.9593252506197121 1.0000   
         C         C         1.0       0.25369485581461404           0.13809706527443166          0.9634755434872277 1.0000   
         C         C         1.0       0.2487803076190002  0.1877191842635621  0.9548490002714881 1.0000   
         C         C         1.0       0.20894933794059092           0.20597580039046362          0.9437402084690378 1.0000   
         H         H         1.0       0.14577833114540448           0.10438081575663237          0.9478706210985357 1.0000   
         H         H         1.0       0.21638184409822875           0.07094675278338494          0.9626596563422943 1.0000   
         H         H         1.0       0.2792344767793207  0.21078250485800135           0.9587131830280499 1.0000   
         H         H         1.0       0.20785434558777435           0.2438224503257549 0.9403537964880261 1.0000   
         C         C         1.0       0.3569402643978552  0.16740408411172922           0.9372859558574601 1.0000   
         C         C         1.0       0.34951194936574714           0.14395961046421404          0.968169359938362  1.0000   
         C         C         1.0       0.3871950873332432  0.13511346908065966           0.9900327391596445 1.0000   
         C         C         1.0       0.4305683781491915  0.15253633042612622           0.9823608294275752 1.0000   
         C         C         1.0       0.4372488322711975  0.1758085305426296  0.9491715235709015 1.0000   
         C         C         1.0       0.40102274131733406           0.18265631539475027          0.9254208888385975 1.0000   
         C         C         1.0       0.3029569779073748  0.11827176701217688           0.9802804016138245 1.0000   
         C         C         1.0       0.31346659338100646           0.06340487439616883          0.9670659096003139 1.0000   
         C         C         1.0       0.33552381626965755           0.0321920577253243 0.9913884146602404 1.0000   
         C         C         1.0       0.34882716244473816           0.9879734236988491 0.9805718149877304 1.0000   
         C         C         1.0       0.34116690661232874           0.9754953735545548 0.9438281119966864 1.0000   
         C         C         1.0       0.3137261580450341  0.001140986630039365         0.9209861283746074 1.0000   
         C         C         1.0       0.30062351908418183           0.044454492538802404         0.9322852332742269 1.0000   
         C         C         1.0       0.30039895808663236           0.1621128936380923 0.042785691779081925         1.0000   
         C         C         1.0       0.29048634581340665           0.16360205393731872          0.07754500944994415          1.0000   
         C         C         1.0       0.2640562408978976  0.1294592945549291  0.0962471107137515 1.0000   
         C         C         1.0       0.24822209997378808           0.09303338597628485          0.07519309909125926          1.0000   
         C         C         1.0       0.26307384612565304           0.0874227845861435 0.03952801342008527          1.0000   
         C         C         1.0       0.2876366920370543  0.1234349458104846  0.022226719093034752         1.0000   
         C         C         1.0       0.25809169799514914           0.13116213542417055          0.13887832966582947          1.0000   
         C         C         1.0       0.38044806942515536           0.046628711770177356         0.16248006390502345          1.0000   
         C         C         1.0       0.3815819678642075  0.09665415128849819           0.16174136045405832          1.0000   
         C         C         1.0       0.34261161480020225           0.1236941392427402 0.15327434638897933          1.0000   
         C         C         1.0       0.30160389506026863           0.10085438096221977          0.1476684743649801 1.0000   
         C         C         1.0       0.3014049326258073  0.05237733399320699           0.14782385853155947          1.0000   
         C         C         1.0       0.3395107222027616  0.02516768912531031           0.15517325496801476          1.0000   
         C         C         1.0       0.2093937828196723  0.10676418425741852           0.1506852630316941 1.0000   
         C         C         1.0       0.17103461676642448           0.12395937250577616          0.13233573282469197          1.0000   
         C         C         1.0       0.12583583627930112           0.1146370265744161 0.14189626278041476          1.0000   
         C         C         1.0       0.11504312208785908           0.08656924058897575          0.1702701749494664 1.0000   
         C         C         1.0       0.1532578213440528  0.06714447538593338           0.1898778515772203 1.0000   
         C         C         1.0       0.19899886794635957           0.07642878047860635          0.180218685885772  1.0000   
         C         C         1.0       0.2670346204976832  0.18440050275421926           0.19609684850428247          1.0000   
         C         C         1.0       0.26318924384051917           0.22505007536528931          0.21561628538683983          1.0000   
         C         C         1.0       0.2410613287556235  0.2627179163756739  0.1984640798290367 1.0000   
         C         C         1.0       0.22960721873272677           0.26044592456098004          0.16289148091856406          1.0000   
         C         C         1.0       0.23594705255864137           0.22016074380310924          0.14284531310871548          1.0000   
         C         C         1.0       0.25581202043535806           0.1813429311982293 0.15907523051809497          1.0000   
         H         H         1.0       0.3270271406028829  0.17891430896127786           0.9223449408105091 1.0000   
         H         H         1.0       0.3822353569529744  0.11382403873377345           0.01469234928967822          1.0000   
         H         H         1.0       0.45883758989419576           0.14583454916648342          0.0005967584151305161        1.0000   
         H         H         1.0       0.40687554666217635           0.19939050013673879          0.8997174174342906 1.0000   
         H         H         1.0       0.34386372395240905           0.04065293089610078          0.018972914183793543         1.0000   
         H         H         1.0       0.37064251161660683           0.9649936965155821 0.9983889616611046 1.0000   
         H         H         1.0       0.3060888671018072  0.9907991823733451  0.8925992918715397 1.0000   
         H         H         1.0       0.28029958234632074           0.06126011544430222          0.9112026110469076 1.0000   
         H         H         1.0       0.32361836434322194           0.18872579395850314          0.030841777739191167         1.0000   
         H         H         1.0       0.3031699139300821  0.19541886552613594           0.09306733465518928          1.0000   
         H         H         1.0       0.23106386638238494           0.06537486712627083          0.08925251747006713          1.0000   
         H         H         1.0       0.25494486324782883           0.056011572102801166         0.02542117056143156          1.0000   
         H         H         1.0       0.41410453369323535           0.11848864516418711          0.16661591337178   1.0000   
         H         H         1.0       0.34602501834665406           0.16119626695669798          0.15020847695659117          1.0000   
         H         H         1.0       0.2691438354791821  0.03533256315779121           0.14106835377378704          1.0000   
         H         H         1.0       0.33570368824940394           0.986651644585206  0.15948992923669492          1.0000   
         H         H         1.0       0.17734520099882628           0.15415124377658085          0.11312135896063577          1.0000   
         H         H         1.0       0.09753228789366376           0.12907346210804493          0.12796606010664768          1.0000   
         H         H         1.0       0.14712094052627098           0.042707751656485105         0.21261027335622074          1.0000   
         H         H         1.0       0.22285668631177147           0.06392456281492187          0.2018548244254103 1.0000   
         H         H         1.0       0.276177949703848   0.15360389580440326           0.21115602727806043          1.0000   
         H         H         1.0       0.26912627481241186           0.22700867315531958          0.24504420619507408          1.0000   
         H         H         1.0       0.21689077183821862           0.2902616712869341 0.14742422398509006          1.0000   
         H         H         1.0       0.2233071845302925  0.22188674190041335           0.11587244368958864          1.0000   
         C         C         1.0       0.5256669713735302  0.8041352531526209  0.3381794331294206 1.0000   
         C         C         1.0       0.5365715263901165  0.8517556964114227  0.34843131791359816          1.0000   
         C         C         1.0       0.5793673491218226  0.8726839001270799  0.3411361755631411 1.0000   
         C         C         1.0       0.6068461740518375  0.8509232316931857  0.31654134146872265          1.0000   
         C         C         1.0       0.5962896112252515  0.8034264252008162  0.306705819248853  1.0000   
         C         C         1.0       0.5565700988789208  0.781512323825269   0.3159953783286153 1.0000   
         H         H         1.0       0.5106407618847929  0.871479087279544   0.36077128903525457          1.0000   
         H         H         1.0       0.5835582332358346  0.9103181859527272  0.34623167191803944          1.0000   
         H         H         1.0       0.6188945691236086  0.7853782445712026  0.28970969234572114          1.0000   
         H         H         1.0       0.5481602117308743  0.7443344549704837  0.30994405106055384          1.0000   
         C         C         1.0       0.7098408497950728  0.8779426876769342  0.3416128661376462 1.0000   
         C         C         1.0       0.6920264227441785  0.8589793086478268  0.30911990136011225          1.0000   
         C         C         1.0       0.7110679310197375  0.8185866422732464  0.29729948987185195          1.0000   
         C         C         1.0       0.7545531428826296  0.8047402056490145  0.3084930326049112 1.0000   
         C         C         1.0       0.7755687942663053  0.8284487350123758  0.337879583306296  1.0000   
         C         C         1.0       0.7517728301571056  0.8629808710141662  0.35435842512971405          1.0000   
         C         C         1.0       0.6459916766388709  0.8816432021111509  0.2931032977512243 1.0000   
         C         C         1.0       0.6487682694443103  0.9407272326131755  0.2919141080911724 1.0000   
         C         C         1.0       0.6920018930162676  0.965157540813548   0.2884506987586146 1.0000   
         C         C         1.0       0.692614891939917   0.013225269425592767         0.2859789391267799 1.0000   
         C         C         1.0       0.6536398373915869  0.039865976963775696         0.28803712588476216          1.0000   
         C         C         1.0       0.6114670415493733  0.017049241099168277         0.2929009598890704 1.0000   
         C         C         1.0       0.6097243677416306  0.9689372025267629  0.29223605712310086          1.0000   
         C         C         1.0       0.5957488296588903  0.8829954777215658  0.23448832439932726          1.0000   
         C         C         1.0       0.5910888050079461  0.8946415099373722  0.19847122921308172          1.0000   
         C         C         1.0       0.6295485739812674  0.8939737068017282  0.175890474248643  1.0000   
         C         C         1.0       0.6698776971878087  0.8755316635542996  0.1912593390539423 1.0000   
         C         C         1.0       0.6755179938443567  0.8735521808497722  0.22728660451946067          1.0000   
         C         C         1.0       0.6389585701627509  0.8764490856021552  0.2502959287998584 1.0000   
         C         C         1.0       0.6271547643061515  0.9209157033471564  0.13653176145706852          1.0000   
         C         C         1.0       0.6365656812065604  0.8245078457912933  0.041782580483208105         1.0000   
         C         C         1.0       0.6316502454104929  0.872154918561699   0.03676367338282686          1.0000   
         C         C         1.0       0.6310684834864665  0.9039447116292579  0.06695915367866051          1.0000   
         C         C         1.0       0.6359015291238452  0.8872539209734079  0.10307132104616298          1.0000   
         C         C         1.0       0.6430532231443318  0.8391914615536766  0.10694811392528292          1.0000   
         C         C         1.0       0.6432013523337661  0.8083520796712449  0.07679415313463435          1.0000   
         C         C         1.0       0.6714040470177934  0.9586195730822067  0.13776719726086128          1.0000   
         C         C         1.0       0.7100695310642068  0.9571858024930592  0.11598311533147644          1.0000   
         C         C         1.0       0.7513996617225571  0.977972556649652   0.12376098340916115          1.0000   
         C         C         1.0       0.7553941299891075  0.008643966222323884         0.15231705568710047          1.0000   
         C         C         1.0       0.716556775820101   0.016247971069099698         0.1739995837454916 1.0000   
         C         C         1.0       0.6752247322534612  0.9902795011896524  0.1671124177416535 1.0000   
         C         C         1.0       0.5709702633042988  0.9915806242721316  0.13653165050569221          1.0000   
         C         C         1.0       0.5290627759692742  0.013312215493427981         0.13277358455527924          1.0000   
         C         C         1.0       0.49070892280751305           0.9858958136762743 0.12410043431223328          1.0000   
         C         C         1.0       0.498473567823536   0.9383439386252327  0.1153531036263951 1.0000   
         C         C         1.0       0.539362670441121   0.9178479934894553  0.11902907319362033          1.0000   
         C         C         1.0       0.5779836318896961  0.9450049501686121  0.12847998326994925          1.0000   
         H         H         1.0       0.6929317937395548  0.9078593400174003  0.35403894841376743          1.0000   
         H         H         1.0       0.6921438214818006  0.7997753644165175  0.27717233313284884          1.0000   
         H         H         1.0       0.7741543939360609  0.7782912415020059  0.2926366908117149 1.0000   
         H         H         1.0       0.764896905636822   0.885430559458373   0.37515701858687317          1.0000   
         H         H         1.0       0.7247928599026491  0.9447890769079237  0.28714499068287513          1.0000   
         H         H         1.0       0.7265166983596708  0.0334228576731912  0.2853200226376966 1.0000   
         H         H         1.0       0.5770415524917721  0.03449857080029939           0.2904361588947652 1.0000   
         H         H         1.0       0.5751533881799218  0.9538609934193013  0.2919020469515975 1.0000   
         H         H         1.0       0.5649264859246786  0.8872575428968729  0.24922583497522757          1.0000   
         H         H         1.0       0.5569449770716822  0.9056742956014086  0.18863670508675862          1.0000   
         H         H         1.0       0.7018002933104919  0.876004511894256   0.1753982970387584 1.0000   
         H         H         1.0       0.7093722695033218  0.8754728359546776  0.24095591390515567          1.0000   
         H         H         1.0       0.6249037540123076  0.8880549215240783  0.010603492472854414         1.0000   
         H         H         1.0       0.6277022997908385  0.9403464687213521  0.060982342252267945         1.0000   
         H         H         1.0       0.6459494142454792  0.8224454983006343  0.1338609280433843 1.0000   
         H         H         1.0       0.6500128140008385  0.7715827773012717  0.08151284081145577          1.0000   
         H         H         1.0       0.7125063095005739  0.9319838666963662  0.0934339615274379 1.0000   
         H         H         1.0       0.7821711101083543  0.9721626988374581  0.10731194475337844          1.0000   
         H         H         1.0       0.7182466439925175  0.034246099196791224         0.19898331926408128          1.0000   
         H         H         1.0       0.6444894883592434  0.9969572158196377  0.1836253827149783 1.0000   
         H         H         1.0       0.6007684914475598  0.01627983158916857           0.13829516704152578          1.0000   
         H         H         1.0       0.5263100352700947  0.05135473116935407           0.13731835849872592          1.0000   
         H         H         1.0       0.4683874467402755  0.9170672520780692  0.11359023394772609          1.0000   
         H         H         1.0       0.5394279054478278  0.879121021882047   0.11296704599688602          1.0000   
         C         C         1.0       0.5478836144354374  0.2083575103615037  0.9749250929710334 1.0000   
         C         C         1.0       0.5783891348583944  0.23972078382126533           0.9592786506255171 1.0000   
         C         C         1.0       0.5971862478048177  0.276499579000948   0.9796832770401648 1.0000   
         C         C         1.0       0.5822130117935184  0.28616567374025453           0.014432307829699731         1.0000   
         C         C         1.0       0.5503321016451634  0.25266734126807805           0.02895016875678058          1.0000   
         C         C         1.0       0.5347663806769706  0.21458722862816326           0.009884791856073605         1.0000   
         H         H         1.0       0.5903496772636367  0.23142844029280502           0.9315675793342111 1.0000   
         H         H         1.0       0.6240559487562861  0.29629052372074915           0.9665582600754167 1.0000   
         H         H         1.0       0.5337410996215971  0.2547142690361138  0.054643016496855504         1.0000   
         H         H         1.0       0.5099985516298854  0.1921056124790363  0.02328598624793221          1.0000   
         C         C         1.0       0.5309746321942554  0.3561707412168614  0.06297317533989721          1.0000   
         C         C         1.0       0.5783501996205183  0.3541168686047539  0.06536924098391683          1.0000   
         C         C         1.0       0.5992850073626738  0.37649664804347355           0.0945863760046528 1.0000   
         C         C         1.0       0.574638859869518   0.401574753679897   0.11986813484707515          1.0000   
         C         C         1.0       0.5272080299102131  0.40337973878246225           0.11479609451124273          1.0000   
         C         C         1.0       0.5055148818589309  0.38257501768312285           0.08647041838774516          1.0000   
         C         C         1.0       0.6071858162648563  0.32945441591940167           0.0341352298781008 1.0000   
         C         C         1.0       0.612894515226749   0.373674932308595   0.0069192350233913125        1.0000   
         C         C         1.0       0.6443559155148293  0.41033638897526786           0.014416682795937774         1.0000   
         C         C         1.0       0.6415492902632927  0.4530795199678796  0.9995493195259585 1.0000   
         C         C         1.0       0.60668483951232    0.4621272285795631  0.9745901677454915 1.0000   
         C         C         1.0       0.5798355114023795  0.4255700751071948  0.9628623335603865 1.0000   
         C         C         1.0       0.5794652899021456  0.38085564211851947           0.9799016325667643 1.0000   
         C         C         1.0       0.6517196552496592  0.27341825245229723           0.0749852913597159 1.0000   
         C         C         1.0       0.6910050783057871  0.2551645152867052  0.08931012967882339          1.0000   
         C         C         1.0       0.7341968258305734  0.2692971654950248  0.07761698242361482          1.0000   
         C         C         1.0       0.734155957136218   0.2953057397743797  0.0467604697597388 1.0000   
         C         C         1.0       0.6949317657571162  0.3136897223451508  0.031172923871588543         1.0000   
         C         C         1.0       0.6524009605859211  0.305602869819998   0.04714990871349589          1.0000   
         C         C         1.0       0.7793208028618223  0.25911729854177873           0.10265311450063942          1.0000   
         C         C         1.0       0.7542036279119108  0.35819427296095363           0.1891526048143869 1.0000   
         C         C         1.0       0.7404049202796623  0.31123906676792096           0.1934868524403566 1.0000   
         C         C         1.0       0.7509798766118477  0.27933572540820373           0.1678745945045656 1.0000   
         C         C         1.0       0.7740530468264499  0.2934487170266959  0.1363070485298914 1.0000   
         C         C         1.0       0.7824656184731466  0.33962508061301755           0.13108465101555034          1.0000   
         C         C         1.0       0.7741865477763293  0.3714084453608699  0.15732376566889805          1.0000   
         C         C         1.0       0.8259334613301382  0.26408988536246975           0.07898122127253825          1.0000   
         C         C         1.0       0.8280945458886749  0.24128553357467117           0.04523976909980587          1.0000   
         C         C         1.0       0.8666437777249144  0.24507221497889356           0.024934263030800263         1.0000   
         C         C         1.0       0.9025335116899997  0.27325121749720466           0.03562785734627805          1.0000   
         C         C         1.0       0.9014440505669815  0.2972244731213436  0.06798531053562895          1.0000   
         C         C         1.0       0.864113303869932   0.2908561781967329  0.0908473021101013 1.0000   
         C         C         1.0       0.8198058759831749  0.1931206910104038  0.1390302226910678 1.0000   
         C         C         1.0       0.833292228000692   0.14744919770501214           0.14311358152138803          1.0000   
         C         C         1.0       0.8045567229144738  0.11099567639314377           0.12989477919815998          1.0000   
         C         C         1.0       0.7659562199993167  0.12047221976185694           0.10980694572681894          1.0000   
         C         C         1.0       0.7559644242810565  0.16666625061686374           0.10195240006662593          1.0000   
         C         C         1.0       0.7828946642043075  0.20374145188170997           0.11562950402253148          1.0000   
         H         H         1.0       0.5078567881390589  0.33666700561363233           0.04298633588149192          1.0000   
         H         H         1.0       0.6340591756627133  0.37783456018255396           0.09609597980212348          1.0000   
         H         H         1.0       0.5910659825741951  0.4241465845674453  0.13933272802407615          1.0000   
         H         H         1.0       0.4700513492893628  0.3870177998194989  0.08178966158193868          1.0000   
         H         H         1.0       0.6675583897455476  0.40574404296652883           0.037729817656294795         1.0000   
         H         H         1.0       0.6649716205836471  0.47987089710066266           0.010592089939368554         1.0000   
         H         H         1.0       0.5500944201932496  0.43496635040476156           0.9457928766780241 1.0000   
         H         H         1.0       0.5540971085255825  0.35605426594137113           0.9752643238773251 1.0000   
         H         H         1.0       0.6193922822994925  0.26183935487877386           0.08576606234318879          1.0000   
         H         H         1.0       0.6844360144904592  0.2376041849742485  0.11471658531771589          1.0000   
         H         H         1.0       0.7671438220919881  0.30922581144688616           0.03444792826664078          1.0000   
         H         H         1.0       0.6977340852803341  0.33854397972468325           0.00860365356716808          1.0000   
         H         H         1.0       0.7258480582451429  0.29901683184691297           0.21863477555113997          1.0000   
         H         H         1.0       0.7428553890889715  0.24526365063358516           0.17502192960329646          1.0000   
         H         H         1.0       0.7900585555382722  0.3549007405095494  0.10662547344139073          1.0000   
         H         H         1.0       0.7830549296056291  0.40858048958016585           0.1537247219772812 1.0000   
         H         H         1.0       0.8018619796521529  0.21706477142684835           0.0338750218401187 1.0000   
         H         H         1.0       0.8670654830571275  0.22838513264583152           0.9985424715190337 1.0000   
         H         H         1.0       0.9285003860659997  0.32116883494776155           0.07644468088505585          1.0000   
         H         H         1.0       0.866681305473906   0.31101853318812483           0.11492443529121661          1.0000   
         H         H         1.0       0.8379768432681777  0.2232435154626735  0.15287244101409575          1.0000   
         H         H         1.0       0.8593535589495485  0.13890219144516552           0.16150059739881112          1.0000   
         H         H         1.0       0.7389064283944361  0.09487907373021023           0.10527061081012731          1.0000   
         H         H         1.0       0.7297171831757341  0.17327733536077886           0.08230358206767187          1.0000   
         C         C         1.0       0.8023727812944744  0.03065511258123355           0.1600120757286029 1.0000   
         C         C         1.0       0.8246068188326959  0.06270855865880277           0.13125953444104885          1.0000   
         H         H         1.0       0.8004774558187887  0.055238617030227255         0.18157136388443573          1.0000   
         H         H         1.0       0.8290794768633536  0.005436138796763856         0.1678712669018342 1.0000   
         H         H         1.0       0.8278706980694158  0.042565748461175446         0.10550739732683401          1.0000   
         H         H         1.0       0.8608432416803679  0.06260627318211265           0.14118862839894342          1.0000   
         C         C         1.0       0.48311580215502176           0.18536480337872938          0.9331501425990658 1.0000   
         C         C         1.0       0.5257036722342605  0.16760010473731085           0.9526539556010074 1.0000   
         H         H         1.0       0.4863055879558042  0.22075657034514057           0.920697429783556  1.0000   
         H         H         1.0       0.4859207624553155  0.1594240115693143  0.9100483592454364 1.0000   
         H         H         1.0       0.5499287983792568  0.15301869716608052           0.9330718965898928 1.0000   
         H         H         1.0       0.5182791127440506  0.13838877570694272           0.9708665570617107 1.0000   
         C         C         1.0       0.4237012592440034  0.01660703245182793           0.1636074288528831 1.0000   
         C         C         1.0       0.4441671107897904  0.00781546154575019           0.12743928175189465          1.0000   
         H         H         1.0       0.44924160772197813           0.035411416583209565         0.17920807669096134          1.0000   
         H         H         1.0       0.4170660262013271  0.9821254256838836  0.17767176570851712          1.0000   
         H         H         1.0       0.4188447778421081  0.9818774718049457  0.11712903873436555          1.0000   
         H         H         1.0       0.4371491999555516  0.03992511301015944           0.10935821502536221          1.0000   
         C         C         1.0       0.6742712813501895  0.11620170445891986           0.25389905310768573          1.0000   
         C         C         1.0       0.6559452154584908  0.09243701216871614           0.2883534999207992 1.0000   
         H         H         1.0       0.6513092662005467  0.14637173124830039           0.2487946058788418 1.0000   
         H         H         1.0       0.671953263293961   0.09548570971246262           0.22886908942749415          1.0000   
         H         H         1.0       0.6207811976078442  0.10661402321185864           0.2962957747168072 1.0000   
         H         H         1.0       0.6752417080368627  0.10023326748312256           0.3131731598016542 1.0000   
         C         C         1.0       0.9836713796737011  0.2308982812838373  0.03080788403720147          1.0000   
         C         C         1.0       0.9491015179187361  0.2689474114978384  0.019134564336260373         1.0000   
         H         H         1.0       0.017260073620349647          0.23107313966679666          0.01556176415635635          1.0000   
         H         H         1.0       0.9664031589932268  0.19675926338173166           0.026080841498314244         1.0000   
         H         H         1.0       0.9469888788654817  0.265529887222325   0.9891028820030712 1.0000   
         H         H         1.0       0.9677437344186927  0.3031592784699981  0.02342320236932216          1.0000   
         C         C         1.0       0.1839015830218622  0.287906007834551   0.23890873066398158          1.0000   
         C         C         1.0       0.22711196083631632           0.3058433868507735 0.22116709704469775          1.0000   
         H         H         1.0       0.17338038605220008           0.3131349859403305 0.2614785873080572 1.0000   
         H         H         1.0       0.19108754493270608           0.25502633714968703          0.25276603959298   1.0000   
         H         H         1.0       0.254537016732822   0.3113487799583248  0.24082303600573446          1.0000   
         H         H         1.0       0.22191795391512945           0.33804792156841906          0.20304315459314662          1.0000   
         C         C         1.0       0.49448321029557146           0.4848062142873899 0.13901867760831355          1.0000   
         C         C         1.0       0.49967576031516064           0.4315498971998321 0.14149310042547913          1.0000   
         H         H         1.0       0.4976505654285684  0.5041586450457956  0.16526495267413743          1.0000   
         H         H         1.0       0.5240205644126568  0.5009061658409684  0.12586791538489117          1.0000   
         H         H         1.0       0.46733519124798206           0.4133145805207345 0.14144736195783358          1.0000   
         H         H         1.0       0.5115969352529732  0.4248651202540279  0.17047824375017417          1.0000   
         C         C         1.0       0.629093307562982   0.7915406081058171  0.009584257504382077         1.0000   
         C         C         1.0       0.5813916491626329  0.7932594572211075  0.9915247527113401 1.0000   
         H         H         1.0       0.6562931417940058  0.7984529309262619  0.9869325775728895 1.0000   
         H         H         1.0       0.6313067897634819  0.751842983423848   0.015932695609519376         1.0000   
         H         H         1.0       0.5835555538307351  0.7673885435358797  0.9706639912591545 1.0000   
         H         H         1.0       0.5721752022880531  0.8276363257408047  0.9802857888663612 1.0000   
         C         C         1.0       0.6871094725422354  0.4162910221094709  0.20315302264419216          1.0000   
         C         C         1.0       0.7347284497408632  0.39641841445688514           0.21420582413189376          1.0000   
         H         H         1.0       0.6613840590586854  0.41514667675065187           0.22695452132008967          1.0000   
         H         H         1.0       0.6716791655568534  0.38823608230563306           0.18236971334883373          1.0000   
         H         H         1.0       0.725367972864324   0.37895278465553106           0.24161390738596336          1.0000   
         H         H         1.0       0.759241481883452   0.42498801749625775           0.22005588353332198          1.0000   
         C         C         1.0       0.8475514541754109  0.7860176457271194  0.3594783041842857 1.0000   
         C         C         1.0       0.8256578405625064  0.831127809268039   0.34454899855242777          1.0000   
         H         H         1.0       0.8342235268243866  0.7769941923324556  0.38640927948327797          1.0000   
         H         H         1.0       0.8814778654280776  0.7999475886021151  0.36436274102041477          1.0000   
         H         H         1.0       0.8406227877757445  0.8417570028622705  0.3186033410660364 1.0000   
         H         H         1.0       0.8349423059473327  0.8608816896049247  0.36257381965507723          1.0000   
         C         C         1.0       0.5987010965330611  0.7432767966083191  0.20761531089053298          1.0000   
         C         C         1.0       0.5468389063520738  0.7446820265089493  0.2189749015589162 1.0000   
         H         H         1.0       0.6217474422523022  0.7410910515229381  0.23190549150231962          1.0000   
         H         H         1.0       0.6041185462582156  0.7795324439860627  0.19570200468232898          1.0000   
         H         H         1.0       0.5421647170698121  0.7710854926035728  0.23926863290044154          1.0000   
         H         H         1.0       0.538486872472407   0.7125089486552966  0.23406057676148945          1.0000   
         C         C         1.0       0.09025644080423978           0.20379724538555571          0.9511804263922237 1.0000   
         C         C         1.0       0.12589680559891983           0.19853409701677868          0.9226118953896982 1.0000   
         H         H         1.0       0.09102923271941173           0.17887527964559805          0.975425674599027  1.0000   
         H         H         1.0       0.058138963340118144          0.1925380454448638 0.9367817351559298 1.0000   
         H         H         1.0       0.13384432636830373           0.23166178089062836          0.9085906340668407 1.0000   
         H         H         1.0       0.111578293854514   0.17563307229736982           0.8995170857162464 1.0000   
         C         C         1.0       0.9198225269714915  0.48041810381617933           0.20167533144786715          1.0000   
         C         C         1.0       0.8954356255901128  0.43978674931287925           0.2217608752460778 1.0000   
         H         H         1.0       0.9098053699728744  0.5174557390920416  0.2079641017986133 1.0000   
         H         H         1.0       0.9578684877890595  0.4767324893076432  0.20954210030398585          1.0000   
         H         H         1.0       0.8586239050214282  0.4331064756598833  0.21356500802360737          1.0000   
         H         H         1.0       0.8922960766998668  0.4513594902328101  0.24962814189501284          1.0000   
         C         C         1.0       0.11371842301584587           0.5078148293338024 0.1148622543384803 1.0000   
         C         C         1.0       0.15292656754332565           0.5161437838263714 0.14398452633292935          1.0000   
         H         H         1.0       0.07721234822185054           0.49823469122936476          0.12716783631606798          1.0000   
         H         H         1.0       0.10596982329331943           0.5425867885649245 0.10412120947779635          1.0000   
         H         H         1.0       0.16122163649490845           0.4844688333007049 0.15963398066848716          1.0000   
         H         H         1.0       0.1423103116112625  0.5418147605073108  0.1623576464662349 1.0000   
         C         C         1.0       0.7550084968615838  0.5376094839327837  0.9718130974801242 1.0000   
         C         C         1.0       0.7449303405879496  0.589992793158832   0.9821122624702757 1.0000   
         H         H         1.0       0.7551713904062385  0.533940348148058   0.9419193880038583 1.0000   
         H         H         1.0       0.725992357179201   0.5114364396853612  0.9792792249132929 1.0000   
         H         H         1.0       0.7222407295682122  0.60906336239355    0.9634975700500538 1.0000   
         H         H         1.0       0.7772672642731475  0.6111454181227836  0.9751164664167973 1.0000   
         C         C         1.0       0.9039810970026559  0.9350985065739534  0.3372105269699572 1.0000   
         C         C         1.0       0.8997663239139394  0.9803874066266032  0.3596727025060011 1.0000   
         H         H         1.0       0.8796860699018904  0.9415461961163276  0.31569978379638913          1.0000   
         H         H         1.0       0.8845483443117028  0.9076143679712637  0.35300306847358703          1.0000   
         H         H         1.0       0.8757657805442806  0.972257639687218   0.38026965382072886          1.0000   
         H         H         1.0       0.9329544515694163  0.9837067692814081  0.37346581980448745          1.0000   
         C         C         1.0       0.025493256587981294          0.07022003889132988          0.1567218865037313 1.0000   
         C         C         1.0       0.06538159374310148           0.08178802089710402          0.1851571004531951 1.0000   
         H         H         1.0       0.030680762975148212          0.09547454360684449          0.13428755084231314          1.0000   
         H         H         1.0       0.9916893390687678  0.07857349233925937           0.16963190069949544          1.0000   
         H         H         1.0       0.05767638275389442           0.057038255456053344         0.21014846032051926          1.0000   
         H         H         1.0       0.05745926980758376           0.11750697178936242          0.19666256034244833          1.0000   
         C         C         1.0       0.31934453124460693           0.929715650233393  0.07494339245062831          1.0000   
         C         C         1.0       0.2723487304347692  0.9391334083568404  0.05965569784570123          1.0000   
         H         H         1.0       0.3252641183484001  0.9515955097860769  0.10205732261484371          1.0000   
         H         H         1.0       0.3426881114366968  0.9501295505813532  0.05780138620743305          1.0000   
         H         H         1.0       0.2746656711575852  0.978527727432316   0.05499653037817473          1.0000   
         H         H         1.0       0.2670274259909797  0.9272391068743836  0.030740360736217106         1.0000   
         C         C         1.0       0.05535141138713917           0.6579341657193768 0.313169945190031  1.0000   
         C         C         1.0       0.05045433385485376           0.6323613345111783 0.2770324594622505 1.0000   
         H         H         1.0       0.08783129861487038           0.6484882081254594 0.32774850099976494          1.0000   
         H         H         1.0       0.027069456614208898          0.6539969248979798 0.3325856402010752 1.0000   
         H         H         1.0       0.06781536262259125           0.5961430506960929 0.2788221632901246 1.0000   
         H         H         1.0       0.0674888454631637  0.64924590360304    0.25471308981387886          1.0000   
         C         C         1.0       0.9874203226392013  0.7321365902634898  0.08058896948291878          1.0000   
         C         C         1.0       0.009924180084210255          0.6858650421271562 0.09086079451397795          1.0000   
         H         H         1.0       0.9533489254460333  0.736726833836442   0.09381753361667926          1.0000   
         H         H         1.0       0.980503481566474   0.7336193679455277  0.05088224461198034          1.0000   
         H         H         1.0       0.01347344461637312           0.679100408020312  0.12005083623633174          1.0000   
         H         H         1.0       0.046595370963753435          0.6880507371638283 0.08030730970422018          1.0000   
         C         C         1.0       0.18463723074357016           0.4694720691754694 0.8504362204492497 1.0000   
         C         C         1.0       0.2228913288944676  0.43972334633490867           0.8329700641132118 1.0000   
         H         H         1.0       0.1627497966776829  0.4745626890540065  0.8268943743124082 1.0000   
         H         H         1.0       0.19807929191133114           0.5037398732698414 0.8612440515844895 1.0000   
         H         H         1.0       0.2474465540364194  0.4304903505315849  0.8539489044846017 1.0000   
         H         H         1.0       0.2428999564121231  0.4608036928198032  0.8127700698468554 1.0000   
         C         C         1.0       0.2512237407802953  0.9470638496261312  0.4073761244282347 1.0000   
         C         C         1.0       0.2372958493861742  0.965885655025198   0.37151520275038163          1.0000   
         H         H         1.0       0.27138798466885644           0.9142886616489821 0.40250019075434357          1.0000   
         H         H         1.0       0.27842377816319713           0.9708271977973904 0.4216354213287212 1.0000   
         H         H         1.0       0.26588747014136455           0.9654656232960817 0.35337030805830094          1.0000   
         H         H         1.0       0.23129019539178758           0.0026551901270597256        0.37197878120673866          1.0000   
         C         C         1.0       0.027776439482877446          0.9829724165316523 0.7533310057362641 1.0000   
         C         C         1.0       0.05400066754647126           0.0313936845366658 0.7615467085212189 1.0000   
         H         H         1.0       0.9919382085904348  0.99071707786252    0.7479952099819256 1.0000   
         H         H         1.0       0.026358145564778335          0.965386866417082  0.7791697804725666 1.0000   
         H         H         1.0       0.09017285924838792           0.021603785147086278         0.7653293154530617 1.0000   
         H         H         1.0       0.04752477737712413           0.04366413615914034          0.7896782850250593 1.0000   
         C         C         1.0       0.4220296744606418  0.9525506958072758  0.9250082935664018 1.0000   
         C         C         1.0       0.3699258525639928  0.9345808691286738  0.9285440187857671 1.0000   
         H         H         1.0       0.4426403202361665  0.9215643789503619  0.9153098437892878 1.0000   
         H         H         1.0       0.43181148868489033           0.9609355901965361 0.9521210689464068 1.0000   
         H         H         1.0       0.370424926981537   0.905029327835163   0.9466315589799222 1.0000   
         H         H         1.0       0.3594355050507526  0.9233335468438807  0.9014750943752771 1.0000   
         C         C         1.0       0.19325396477915815           0.07612808771733393          0.8495144922924306 1.0000   
         C         C         1.0       0.1578800543896769  0.07790310356716813           0.8168096359184301 1.0000   
         H         H         1.0       0.1907599345840304  0.04266867686482856           0.8638886642372292 1.0000   
         H         H         1.0       0.18371270425720415           0.10499678844312388          0.8671884484074345 1.0000   
         H         H         1.0       0.12164969330795561           0.07603832386839841          0.8291062257342481 1.0000   
         H         H         1.0       0.15660744794752018           0.04590838282880939          0.7987415401753266 1.0000   
         C         C         1.0       0.3475478668965246  0.9463502262551134  0.6031640582362858 1.0000   
         C         C         1.0       0.32672655223341607           0.9122853909439932 0.6324960074011663 1.0000   
         H         H         1.0       0.31897624080744497           0.9634954641639134 0.587454873847269  1.0000   
         H         H         1.0       0.3628099363832668  0.9285085825544     0.580769063313181  1.0000   
         H         H         1.0       0.3463321627961508  0.8799351143870572  0.6324820589113024 1.0000   
         H         H         1.0       0.33515402368781316           0.9299037889365088 0.6593691726681331 1.0000   
         C         C         1.0       0.884702022499113   0.36644621439214115           0.3872718875160131 1.0000   
         C         C         1.0       0.9237142190116718  0.3381876082866676  0.37161435397686354          1.0000   
         H         H         1.0       0.8626773510462541  0.38064898024662985           0.36491536355391346          1.0000   
         H         H         1.0       0.8983825116707178  0.39315435822703887           0.40279130058598084          1.0000   
         H         H         1.0       0.94727077003729    0.32629081100084656           0.39485880960830927          1.0000   
         H         H         1.0       0.9506806878117076  0.35954635426270315           0.3558924827969598 1.0000   
         C         C         1.0       0.9168751856161903  0.024433099147850745         0.461312292953122  1.0000   
         C         C         1.0       0.9233048000539591  0.06575009538880905           0.48624508126323185          1.0000   
         H         H         1.0       0.9166207123564724  0.037182676272462745         0.43322674126827243          1.0000   
         H         H         1.0       0.8811725114851094  0.009609684087807935         0.46697739675640976          1.0000   
         H         H         1.0       0.9214504972026214  0.0523513204513133  0.5139594467393133 1.0000   
         H         H         1.0       0.9586344040078447  0.0801576448666974  0.4869708972755711 1.0000   
         C         C         1.0       0.8025596279158105  0.28776832311244716           0.718028004636124  1.0000   
         C         C         1.0       0.8511976011161138  0.30482629999545424           0.7095345214622504 1.0000   
         H         H         1.0       0.7840959615357572  0.3033108962470134  0.74163592057295   1.0000   
         H         H         1.0       0.801829053308928   0.2502920223190465  0.725138064735274  1.0000   
         H         H         1.0       0.8501184968899832  0.3402692652932063  0.6961318428385089 1.0000   
         H         H         1.0       0.868889824960117   0.3168649254922941  0.7342334964498637 1.0000   
         C         C         1.0       0.46295055252987066           0.2923186423889235 0.5984089288224791 1.0000   
         C         C         1.0       0.4958146877690569  0.33492923511121525           0.6106831752285844 1.0000   
         H         H         1.0       0.46408703228050097           0.287940388305655  0.5689300879808123 1.0000   
         H         H         1.0       0.4284370594688603  0.30596058865443415           0.6012460646197161 1.0000   
         H         H         1.0       0.4889117577455488  0.3397586963794279  0.6409302196144869 1.0000   
         H         H         1.0       0.4882696999599285  0.3697070871885646  0.5970930463623331 1.0000   
         C         C         1.0       0.6312867476727869  0.5275911216790212  0.9315082255092965 1.0000   
         C         C         1.0       0.5965651036270669  0.5114541017413613  0.9614513017410506 1.0000   
         H         H         1.0       0.6675536343510658  0.5297866966269311  0.9421776934606817 1.0000   
         H         H         1.0       0.6263168514074016  0.566542350974333   0.9293708697089094 1.0000   
         H         H         1.0       0.561440583435544   0.5147065885070953  0.9504671463384156 1.0000   
         H         H         1.0       0.6010492205703009  0.5343546728023005  0.9858261385335437 1.0000   
         C         C         1.0       0.5184306425988711  0.29757967523137824           0.7821295819280397 1.0000   
         C         C         1.0       0.4913958071937596  0.2896716865252975  0.8186679488599659 1.0000   
         H         H         1.0       0.49906050208939234           0.2987158848401242 0.7566131193810761 1.0000   
         H         H         1.0       0.5390984147845709  0.2651184155173356  0.7798663716559447 1.0000   
         H         H         1.0       0.5166426503436494  0.29107769177151244           0.8418708873666798 1.0000   
         H         H         1.0       0.46855189803802344           0.31834699296996616          0.8196567846728864 1.0000   
         C         C         1.0       0.7277588993801201  0.5483828126141851  0.5392530413441821 1.0000   
         C         C         1.0       0.7503646270153613  0.5093917600180382  0.5163683524741107 1.0000   
         H         H         1.0       0.6883553178510382  0.5508365592186939  0.5372989738371864 1.0000   
         H         H         1.0       0.7389468898848811  0.5803771973170733  0.5262913403755165 1.0000   
         H         H         1.0       0.7878415152823445  0.5196742989957244  0.512841770407552  1.0000   
         H         H         1.0       0.7360068503036142  0.5105898170147679  0.4880126077799605 1.0000   
         C         C         1.0       0.4852950533650731  0.7518804007011421  0.38977144408657016          1.0000   
         C         C         1.0       0.4801583945889007  0.7822923506993211  0.35328817800833084          1.0000   
         H         H         1.0       0.4503072625541125  0.7464720501890858  0.3965493574307208 1.0000   
         H         H         1.0       0.4959235534041459  0.7163661589375167  0.38067246494252327          1.0000   
         H         H         1.0       0.4531624199926595  0.8081817096023624  0.3604710487973018 1.0000   
         H         H         1.0       0.46652706604844874           0.7600223731561483 0.33164634296148865          1.0000   
         C         C         1.0       0.7132796514259747  0.011633501221918863         0.4109706145096528 1.0000   
         C         C         1.0       0.6869157462876112  0.054002452601477735         0.39437780145383744          1.0000   
         H         H         1.0       0.7438082659058304  0.023948247851535154         0.4264576411606214 1.0000   
         H         H         1.0       0.7293394965754222  0.9895965615601244  0.3891344115091674 1.0000   
         H         H         1.0       0.6492432184014995  0.050467170155853225         0.39917112704523805          1.0000   
         H         H         1.0       0.6883510167158159  0.056181602082238324         0.3632004753182829 1.0000   
         C         C         1.0       0.6569852814566498  0.022657723036725752         0.71095933166725   1.0000   
         C         C         1.0       0.6617569441108822  0.06743884894670105           0.6857225209484201 1.0000   
         H         H         1.0       0.632183075087264   0.027852611389706627         0.7328840351440742 1.0000   
         H         H         1.0       0.6883059336123363  0.021667194620839325         0.7258961478228688 1.0000   
         H         H         1.0       0.6836699823445954  0.05862869146979177           0.6621796042830214 1.0000   
         H         H         1.0       0.6810930268913552  0.09229734483807661           0.7025879069854704 1.0000   
         C         C         1.0       0.7537448299349035  0.7632573757939152  0.7327970430343772 1.0000   
         C         C         1.0       0.7972551302289125  0.7358322716045627  0.7223011622088519 1.0000   
         H         H         1.0       0.7610415033232983  0.7997603634940884  0.742279955109315  1.0000   
         H         H         1.0       0.7387136180557753  0.7446345673628286  0.7559078231724357 1.0000   
         H         H         1.0       0.8205317940040613  0.7423672021759185  0.7455964663342913 1.0000   
         H         H         1.0       0.8117478032784863  0.7530422186168684  0.6984229048846374 1.0000   
         C         C         1.0       0.32640970715092205           0.5544607557168457 0.9031679519814296 1.0000   
         C         C         1.0       0.28601626902488875           0.5295352703743463 0.9233636176310521 1.0000   
         H         H         1.0       0.36244220887744516           0.5453378679544693 0.9141185048275217 1.0000   
         H         H         1.0       0.3227824731860888  0.5926933952667895  0.9060405852860784 1.0000   
         H         H         1.0       0.2849168293958464  0.4913515239346603  0.917417443638899  1.0000   
         H         H         1.0       0.2549502641847999  0.542937342284752   0.9131586700232603 1.0000   
         C         C         1.0       0.05697194724244748           0.6911754338508423 0.6891619990880072 1.0000   
         C         C         1.0       0.05521326611316947           0.6574023746365777 0.6562112273297308 1.0000   
         H         H         1.0       0.07658334001116397           0.6769809912755772 0.7110909469704247 1.0000   
         H         H         1.0       0.022202932471328433          0.6915270115330028 0.7030758129639729 1.0000   
         H         H         1.0       0.035680448061622856          0.6744245161509707 0.633472501826583  1.0000   
         H         H         1.0       0.036370597271905954          0.6248393644922596 0.6645093086378749 1.0000   
         C         C         1.0       0.5330961853923657  0.6572981366918782  0.723962636453569  1.0000   
         C         C         1.0       0.5630555757983275  0.6264141304620797  0.6971932115842674 1.0000   
         H         H         1.0       0.5256052103257864  0.6905572200732466  0.7077556839300141 1.0000   
         H         H         1.0       0.5511594857260602  0.6647948769146275  0.7493941562329341 1.0000   
         H         H         1.0       0.5386411650882361  0.6071144807570157  0.6782441333917703 1.0000   
         H         H         1.0       0.5849350734148193  0.6513946906273939  0.6787045009830655 1.0000   
         C         C         1.0       0.37658377678304544           0.7721223663772864 0.6227044818163344 1.0000   
         C         C         1.0       0.41075288444713715           0.7578937476437239 0.6525718096750475 1.0000   
         H         H         1.0       0.397630651480931   0.7818554406646845  0.5988572636712872 1.0000   
         H         H         1.0       0.36107574804723225           0.8063092720330917 0.6308406333494001 1.0000   
         H         H         1.0       0.39347214119989754           0.7607326691832735 0.6781231776807939 1.0000   
         H         H         1.0       0.4137866479712518  0.7176940926543036  0.6533181633363433 1.0000   
         C         C         1.0       0.3723219800960942  0.3055032777010282  0.702825340513096  1.0000   
         C         C         1.0       0.3966550264815141  0.3361230427881012  0.7305359521493043 1.0000   
         H         H         1.0       0.38875239854497196           0.27118196740962347          0.7011096710421133 1.0000   
         H         H         1.0       0.37391588748116555           0.32022737964488684          0.675053418016022  1.0000   
         H         H         1.0       0.388792161477905   0.32747197218662416           0.7602634959739347 1.0000   
         H         H         1.0       0.43366919521436587           0.3297792733332583 0.7306949144960143 1.0000   
         C         C         1.0       0.7688997312193451  0.42824410868062024           0.3417707603645705 1.0000   
         C         C         1.0       0.7406259721868469  0.45787523964060545           0.315398612927006  1.0000   
         H         H         1.0       0.7924506166933747  0.4034317700641131  0.3279394206559633 1.0000   
         H         H         1.0       0.743108842496786   0.403369953717714   0.3555533879896463 1.0000   
         H         H         1.0       0.7111772358963805  0.4692843591589432  0.32926282971853327          1.0000   
         H         H         1.0       0.7242747992134696  0.43200304406322965           0.29805678314845374          1.0000   
         C         C         1.0       0.7883588156943095  0.6947760513140702  0.50052147599886   1.0000   
         C         C         1.0       0.7939009117707437  0.7353259615981859  0.472613599977847  1.0000   
         H         H         1.0       0.7516092549270206  0.6850985534558708  0.5024209741122295 1.0000   
         H         H         1.0       0.7945572364744283  0.7041878996939365  0.5288187317012782 1.0000   
         H         H         1.0       0.8221134519429184  0.7614732592809048  0.4815065701951131 1.0000   
         H         H         1.0       0.8006547823742886  0.723999121689779   0.44507505190542085          1.0000   
         C         C         1.0       0.005080351557616325          0.4493766551683913 0.6896147976338267 1.0000   
         C         C         1.0       0.9638489595863958  0.4316097672495909  0.7131085939406714 1.0000   
         H         H         1.0       0.03695761908031736           0.4267021945574311 0.699307876745594  1.0000   
         H         H         1.0       0.014271313497149718          0.4872319655681374 0.6930292348747187 1.0000   
         H         H         1.0       0.9593503478329743  0.39471230112911715           0.705242582690838  1.0000   
         H         H         1.0       0.9678527216863724  0.43080052295594856           0.7440063501903941 1.0000   
         C         C         1.0       0.9697796024787058  0.7467769476862516  0.41663033712219866          1.0000   
         C         C         1.0       0.0015706981201997205         0.7081984140006368 0.4020447246384874 1.0000   
         H         H         1.0       0.9469739289392529  0.7282556177015556  0.4368560416031541 1.0000   
         H         H         1.0       0.9476643620705293  0.7556288166431638  0.3933653908677328 1.0000   
         H         H         1.0       0.03440703763631259           0.7078656832419951 0.41719294874998475          1.0000   
         H         H         1.0       0.009290660569615916          0.7130261313670083 0.37486747080345567          1.0000   
         C         C         1.0       0.21369539849175087           0.4913823889581892 0.49616759984260234          1.0000   
         C         C         1.0       0.19139193523119963           0.44230630953770916          0.5018741016654702 1.0000   
         H         H         1.0       0.1966738484022697  0.5109644787380404  0.47431214542503963          1.0000   
         H         H         1.0       0.24813691019691328           0.4824643699333448 0.48357085673808453          1.0000   
         H         H         1.0       0.214687251464228   0.42107799515173067           0.5193335994084    1.0000   
         H         H         1.0       0.1925427259697331  0.42358754025394596           0.47727246902945214          1.0000   
         C         C         1.0       0.005657862303414474          0.18308787500928406          0.5108213226447509 1.0000   
         C         C         1.0       0.9627178267203975  0.2075175949372334  0.49429581765957836          1.0000   
         H         H         1.0       0.03939294586429054           0.19744486017228452          0.4998833028244056 1.0000   
         H         H         1.0       0.008333525768131622          0.14534498010741118          0.5024197499837632 1.0000   
         H         H         1.0       0.932243768713365   0.19192720991170192           0.5086229498546666 1.0000   
         H         H         1.0       0.9550438960472302  0.20030652370225877           0.46576361753821505          1.0000

