data_0
_chemical_formula_structural 
                                        C6H4C38H24C6H4C38H24C6H4C38H24C6H4C38H24C6H4C38H24C6H4C38H24C6H4C38H24C6H4C38H24C6H4C38H24C6H4C38H24C6H4C38H24C6H4C38H24C6H4C38H24C6H4C38H24C6H4C38H24C6H4C38H24C6H4C38H24C6H4C38H24C6H4C38H24C6H4C38H24C6H4C38H24C6H4C38H24C6H4C38H24C6H4C38H24C6H4C38H24C6H4C38H24C6H4C38H24C6H4C38H24C6H4C38H24C6H4C38H24C6H4C38H24C6H4C38H24C2H4C2H4C2H4C2H4C2H4C2H4C2H4C2H4C2H4C2H4C2H4C2H4C2H4C2H4C2H4C2H4C2H4C2H4C2H4C2H4C2H4C2H4C2H4C2H4C2H4C2H4C2H4C2H4C2H4C2H4C2H4C2H4C2H4C2H4C2H4C2H4C2H4C2H4C2H4C2H4C2H4C2H4C2H4C2H4C2H4C2H4C2H4C2H4C2H4C2H4C2H4C2H4C2H4C2H4C2H4C2H4C2H4C2H4C2H4C2H4C2H4C2H4C2H4C2H4C2H4C2H4C2H4C2H4C2H4C2H4C2H4C2H4C2H4C2H4C2H4C2H4C2H4C2H4C2H4C2H4C2H4C2H4C2H4C2H4C2H4C2H4C2H4C2H4C2H4C2H4C2H4C2H4C2H4C2H4C2H4C2H4C6H4C38H24C6H4C38H24C6H4C38H24C6H4C38H24C6H4C38H24C6H4C38H24C6H4C38H24C6H4C38H24C6H4C38H24C6H4C38H24C6H4C38H24C6H4C38H24C6H4C38H24C6H4C38H24C6H4C38H24C6H4C38H24C6H4C38H24C6H4C38H24C6H4C38H24C6H4C38H24C6H4C38H24C6H4C38H24C6H4C38H24C6H4C38H24C6H4C38H24C6H4C38H24C6H4C38H24C6H4C38H24C6H4C38H24C6H4C38H24C6H4C38H24C6H4C38H24C2H4C2H4C2H4C2H4C2H4C2H4C2H4C2H4C2H4C2H4C2H4C2H4C2H4C2H4C2H4C2H4C2H4C2H4C2H4C2H4C2H4C2H4C2H4C2H4C2H4C2H4C2H4C2H4C2H4C2H4C2H4C2H4C2H4C2H4C2H4C2H4C2H4C2H4C2H4C2H4C2H4C2H4C2H4C2H4C2H4C2H4C2H4C2H4C2H4C2H4C2H4C2H4C2H4C2H4C2H4C2H4C2H4C2H4C2H4C2H4C2H4C2H4C2H4C2H4C2H4C2H4C2H4C2H4C2H4C2H4C2H4C2H4C2H4C2H4C2H4C2H4C2H4C2H4C2H4C2H4C2H4C2H4C2H4C2H4C2H4C2H4C2H4C2H4C2H4C2H4C2H4C2H4C2H4C2H4C2H4C2H4
_chemical_formula_sum                   'C3200 H2560'
_cell_length_a                          58.3088668552263
_cell_length_b                          57.94643574682772
_cell_length_c                          49.238784537782614
_cell_angle_alpha                       90.99618101897724
_cell_angle_beta                        89.78224299972717
_cell_angle_gamma                       90.50964304765476
_space_group_name_H-M_alt               'P 1'
_space_group_IT_number                  1
loop_
  _space_group_symop_operation_xyz
         'x, y, z' 
loop_
  _atom_site_type_symbol
  _atom_site_label
  _atom_site_symmetry_multiplicity
  _atom_site_fract_x
  _atom_site_fract_y
  _atom_site_fract_z
  _atom_site_occupancy
         C         C         1.0       0.5085508213645871  0.1688053448962577  0.2288509146696177 1.0000   
         C         C         1.0       0.48818045205180477           0.17018653163272995          0.21406905412670174          1.0000   
         C         C         1.0       0.4837380563345138  0.15259231287015584           0.19498699269432657          1.0000   
         C         C         1.0       0.49745122306018796           0.13365131090889454          0.1931171189993301 1.0000   
         C         C         1.0       0.5173425516981351  0.1331719143419372  0.2082213232285126 1.0000   
         C         C         1.0       0.5240254824886914  0.15070039357557397           0.2240861922111788 1.0000   
         H         H         1.0       0.4765086711801499  0.18468786982347843           0.2169268426589318 1.0000   
         H         H         1.0       0.46923398060153093           0.15388734647883143          0.18079769131464396          1.0000   
         H         H         1.0       0.5270407892607757  0.11836078525650683           0.20672467095728497          1.0000   
         H         H         1.0       0.5407038350620899  0.15085767478395928           0.23380675340499432          1.0000   
         C         C         1.0       0.527151099205598   0.10376208151819384           0.15197262266781503          1.0000   
         C         C         1.0       0.5064307619506642  0.09625416509220597           0.16265699586358193          1.0000   
         C         C         1.0       0.502744890310296   0.07238721667484405           0.16246457492802271          1.0000   
         C         C         1.0       0.5190611070344153  0.05741208181364876           0.15391984084186225          1.0000   
         C         C         1.0       0.5400759771296444  0.06610554465744944           0.14668484467962292          1.0000   
         C         C         1.0       0.5436754243340272  0.08936771536055771           0.14488220518353284          1.0000   
         C         C         1.0       0.4878367813524954  0.11272273525724376           0.17510459594683855          1.0000   
         C         C         1.0       0.47713035323496833           0.120711077301748  0.1466422650770617 1.0000   
         C         C         1.0       0.4575844342845588  0.1095944509942004  0.13641080944969158          1.0000   
         C         C         1.0       0.44675192206215086           0.11828066741454975          0.11430932560205193          1.0000   
         C         C         1.0       0.45577402414462076           0.1367826216886428 0.10159778118074231          1.0000   
         C         C         1.0       0.47522429588598913           0.14796006717285318          0.11167107696651947          1.0000   
         C         C         1.0       0.48581454007783387           0.13927043059877933          0.13360924098681778          1.0000   
         C         C         1.0       0.48287577125819575           0.08995411849569143          0.21934957175354555          1.0000   
         C         C         1.0       0.47202034674969023           0.07978278733064093          0.2390095366704461 1.0000   
         C         C         1.0       0.44839037965578415           0.07857976490319588          0.2397185187355249 1.0000   
         C         C         1.0       0.4369040969663254  0.08988481955683275           0.2188678999655459 1.0000   
         C         C         1.0       0.4485604435171215  0.10334185557995133           0.20050905937779379          1.0000   
         C         C         1.0       0.47190506639056157           0.10127082515830177          0.19822829051236626          1.0000   
         C         C         1.0       0.4340293175629621  0.06490410037731231           0.2626779108225635 1.0000   
         C         C         1.0       0.4778892461888325  0.010169124125953388         0.2968743493355492 1.0000   
         C         C         1.0       0.4643258353142329  0.023226299116326565         0.31319694255364   1.0000   
         C         C         1.0       0.45022832609467106           0.040350048254680804         0.3035903047497407 1.0000   
         C         C         1.0       0.45007389386361324           0.04584432528710125          0.2758468496645423 1.0000   
         C         C         1.0       0.4610171021933045  0.029689744590819522         0.2582798390798909 1.0000   
         C         C         1.0       0.47432714111457375           0.012150677906977103         0.2692273828951521 1.0000   
         C         C         1.0       0.4126517904770074  0.050050759086495145         0.25393411540088956          1.0000   
         C         C         1.0       0.4088636322357828  0.042509487498167076         0.2274790635886837 1.0000   
         C         C         1.0       0.3899954656870484  0.029998904698908202         0.21994500441138556          1.0000   
         C         C         1.0       0.37538022724119197           0.023223461260867273         0.23866805862321286          1.0000   
         C         C         1.0       0.3780368132404317  0.030665149940976244         0.2651018858351049 1.0000   
         C         C         1.0       0.3969876950055396  0.04276721804591377           0.2739911594804314 1.0000   
         C         C         1.0       0.4071624431694064  0.09533482286494341           0.28436899954718126          1.0000   
         C         C         1.0       0.40344935881059074           0.11472491885246286          0.29981658436576203          1.0000   
         C         C         1.0       0.4201355088720333  0.12279811235531281           0.3176378751253552 1.0000   
         C         C         1.0       0.4414112642429295  0.1132095395743156  0.3158611671714931 1.0000   
         C         C         1.0       0.44562809249203494           0.09562439665604687          0.2982903612862494 1.0000   
         C         C         1.0       0.4290251225014297  0.08564100571625939           0.28242141142323546          1.0000   
         H         H         1.0       0.530990985074538   0.1221954772843726  0.1518540218287339 1.0000   
         H         H         1.0       0.48532723534073535           0.0653312326155655 0.1686100633218921 1.0000   
         H         H         1.0       0.5155782733625184  0.03923450603084877           0.15538121607582472          1.0000   
         H         H         1.0       0.5584524520429879  0.09455427479226862           0.13414700163401347          1.0000   
         H         H         1.0       0.450873065496603   0.09340653379071596           0.14381172790136104          1.0000   
         H         H         1.0       0.4337081116564526  0.10879085244236984           0.10719486551019865          1.0000   
         H         H         1.0       0.4812541178521993  0.16397342124685502           0.10307481732492811          1.0000   
         H         H         1.0       0.5004922443429186  0.14808944282316694           0.141805972798572  1.0000   
         H         H         1.0       0.5013684900629898  0.08964256323481634           0.21846975430906   1.0000   
         H         H         1.0       0.4819980348114659  0.0733063569624477  0.2566045887039579 1.0000   
         H         H         1.0       0.41933480074164314           0.08740715285339097          0.21921153622975306          1.0000   
         H         H         1.0       0.43966097058790876           0.11368465843342344          0.1859047495131747 1.0000   
         H         H         1.0       0.4670391316066603  0.018404828941504858         0.33506671924358117          1.0000   
         H         H         1.0       0.4417701343310507  0.05299651101776148           0.3178158833897593 1.0000   
         H         H         1.0       0.4572490107815118  0.029377914331787824         0.23748079097476416          1.0000   
         H         H         1.0       0.4839767114211222  0.0017182968811675359        0.2559891061263337 1.0000   
         H         H         1.0       0.42300584267374647           0.046661454052679296         0.21261723913589062          1.0000   
         H         H         1.0       0.38696522423562646           0.022299125247984053         0.198876546053494  1.0000   
         H         H         1.0       0.36401667169038743           0.024842291232009872         0.2790608458002489 1.0000   
         H         H         1.0       0.39803572556210165           0.04821152508736137          0.29434755053616846          1.0000   
         H         H         1.0       0.394551766283271   0.0898157197381883  0.2697536574387384 1.0000   
         H         H         1.0       0.3862606821490051  0.1220060665011567  0.29841391850811955          1.0000   
         H         H         1.0       0.4543049757721748  0.11825758483219206           0.32963892189532096          1.0000   
         H         H         1.0       0.46203942162116274           0.08796527280761339          0.29809464935264723          1.0000   
         C         C         1.0       0.5064087909053727  0.10637294445249841           0.4716097960388125 1.0000   
         C         C         1.0       0.4852764423435814  0.11567130655534572           0.46565281495464667          1.0000   
         C         C         1.0       0.4683842304004368  0.10210525190240362           0.4557106646406472 1.0000   
         C         C         1.0       0.4725911738911827  0.07891412571044767           0.44646342999646443          1.0000   
         C         C         1.0       0.49439332047744966           0.07118067558501294          0.4506094747978901 1.0000   
         C         C         1.0       0.510012843199819   0.08305595287968333           0.4655254138397767 1.0000   
         H         H         1.0       0.4820435562410677  0.13343528193392906           0.46851717066489207          1.0000   
         H         H         1.0       0.4518941410395861  0.11000796328326912           0.4524921077832893 1.0000   
         H         H         1.0       0.5010323146141392  0.05416301260201483           0.4466363309122936 1.0000   
         H         H         1.0       0.5266720647281051  0.07782607708416486           0.4688563375936399 1.0000   
         C         C         1.0       0.48121868566640114           0.03463100491230353          0.4045541264250527 1.0000   
         C         C         1.0       0.46089523815179156           0.038269154146721274         0.4177504781884672 1.0000   
         C         C         1.0       0.44719954591051725           0.018497404188514865         0.4191335713161991 1.0000   
         C         C         1.0       0.4545136645867363  0.9967392405782952  0.413837718435845  1.0000   
         C         C         1.0       0.4771346617760445  0.9942222913259109  0.4052853671020358 1.0000   
         C         C         1.0       0.49051057705993856           0.013051888937722689         0.4007956488208866 1.0000   
         C         C         1.0       0.4538415101707768  0.06226870352087936           0.4314085954673828 1.0000   
         C         C         1.0       0.4416587963308628  0.07696211456585568           0.4077014373747083 1.0000   
         C         C         1.0       0.4185809089888093  0.07313423983465159           0.400032344556326  1.0000   
         C         C         1.0       0.40643752481833667           0.08904783236801049          0.38557374765010693          1.0000   
         C         C         1.0       0.41702509388616116           0.10943295888082147          0.3790010655531523 1.0000   
         C         C         1.0       0.4390727267073984  0.11327827473600342           0.3874629189967243 1.0000   
         C         C         1.0       0.4520853357941726  0.09654061283216332           0.3974841150386746 1.0000   
         C         C         1.0       0.4497861086205291  0.043330740851950766         0.47856826276020914          1.0000   
         C         C         1.0       0.4392712035186751  0.038731695203863215         0.5023843199734281 1.0000   
         C         C         1.0       0.4167324328964264  0.04567308150946814           0.5073889788783393 1.0000   
         C         C         1.0       0.4064310116163779  0.05821367325867783           0.4879944629716907 1.0000   
         C         C         1.0       0.41816029690138007           0.06502984263791015          0.46448390489981384          1.0000   
         C         C         1.0       0.4395049865683469  0.05635535365090319           0.45856724667078885          1.0000   
         C         C         1.0       0.3937814657851759  0.04642180786522143           0.04135516704051967          1.0000   
         C         C         1.0       0.43031161919084016           0.9914990926021141 0.07997390429421587          1.0000   
         C         C         1.0       0.4287867705551412  0.011931311535989808         0.09384977860746453          1.0000   
         C         C         1.0       0.41289764326007    0.028050745618571904         0.08606336263243179          1.0000   
         C         C         1.0       0.4028171049108146  0.025969307514554396         0.0601625366902743 1.0000   
         C         C         1.0       0.4030052370242159  0.0041487431747351255        0.048585313339031266         1.0000   
         C         C         1.0       0.4171405072018794  0.9872243492179036  0.05800319168364967          1.0000   
         C         C         1.0       0.3664581564084814  0.04517502026505915           0.04345243781279162          1.0000   
         C         C         1.0       0.35288168940462894           0.03188747149037874          0.025633901177983368         1.0000   
         C         C         1.0       0.329665935492271   0.0326311055452726  0.025829898409978073         1.0000   
         C         C         1.0       0.3191822334182593  0.04518477176761482           0.045741576792535765         1.0000   
         C         C         1.0       0.331367921991522   0.055724886775239124         0.06568381033165115          1.0000   
         C         C         1.0       0.35573868270505116           0.054165966760323814         0.0656567379122567 1.0000   
         C         C         1.0       0.395591939149766   0.09051354911541232           0.048665183812124146         1.0000   
         C         C         1.0       0.4064465204355626  0.11156898195991317           0.05077870031785836          1.0000   
         C         C         1.0       0.43019104383908446           0.11203680602209898          0.05166147711047975          1.0000   
         C         C         1.0       0.4426958896800687  0.0922639190115428  0.05143832240538049          1.0000   
         C         C         1.0       0.4313083148837653  0.07151613190546728           0.05128348895714053          1.0000   
         C         C         1.0       0.40720373844261065           0.07036022145106066          0.04838035990317402          1.0000   
         H         H         1.0       0.49119600908269195           0.050711929730575936         0.40188171801368694          1.0000   
         H         H         1.0       0.42987689713528193           0.020521721155129846         0.4282121517002376 1.0000   
         H         H         1.0       0.4442323608789031  0.9819549332170822  0.4161570980003697 1.0000   
         H         H         1.0       0.5079473607794182  0.010315642182957774         0.3929896075388716 1.0000   
         H         H         1.0       0.40911502264916066           0.06068969864039597          0.4108658443394526 1.0000   
         H         H         1.0       0.3882148827491679  0.08749282909235259           0.38595370894185543          1.0000   
         H         H         1.0       0.4467730763902713  0.12982603059517983           0.38859899343963417          1.0000   
         H         H         1.0       0.4697728001701234  0.1013647215492287  0.4033516759867409 1.0000   
         H         H         1.0       0.46745913486591484           0.03606471933397981          0.4791517212369494 1.0000   
         H         H         1.0       0.42957049583426343           0.02413734791321831          0.014510072630697923         1.0000   
         H         H         1.0       0.3890624582726322  0.06315969763004183           0.4918819590245467 1.0000   
         H         H         1.0       0.40811704676392174           0.0752782225866416 0.4510049556456837 1.0000   
         H         H         1.0       0.43801317622536345           0.015541541992478258         0.11141276476749032          1.0000   
         H         H         1.0       0.41257116149178236           0.04409142414937639          0.09692899131250517          1.0000   
         H         H         1.0       0.39435989715574543           0.0012632126436831204        0.029187495193595314         1.0000   
         H         H         1.0       0.41878562048235024           0.9712406059063342 0.045263705404192674         1.0000   
         H         H         1.0       0.37920419533781713           0.015844242112879048         0.4932318579563553 1.0000   
         H         H         1.0       0.33819960961308093           0.005174833612331398         0.49123254029077784          1.0000   
         H         H         1.0       0.3208967200887269  0.06584837710486702           0.07885046051452518          1.0000   
         H         H         1.0       0.3659910547174988  0.06310830605776618           0.08118100586492795          1.0000   
         H         H         1.0       0.3770454746118896  0.08927038471283015           0.04704221671361375          1.0000   
         H         H         1.0       0.39693986428292455           0.12701771121367494          0.04787893322110959          1.0000   
         H         H         1.0       0.4609973616763497  0.09376224560344792           0.05428619533379786          1.0000   
         H         H         1.0       0.44119767584329467           0.056712376183216506         0.05233702400442386          1.0000   
         C         C         1.0       0.5700080826395603  0.8630461206201344  0.04871622272638598          1.0000   
         C         C         1.0       0.5866356146248691  0.8797248728966297  0.04666914268374068          1.0000   
         C         C         1.0       0.5831641335896433  0.9004295468619773  0.06070751275362727          1.0000   
         C         C         1.0       0.5622656800700504  0.9074423589366101  0.07147989184986685          1.0000   
         C         C         1.0       0.5460368312698708  0.8896732569821117  0.07337143688078301          1.0000   
         C         C         1.0       0.5499239279429282  0.8681844685082503  0.06210791311688614          1.0000   
         H         H         1.0       0.6024325234325099  0.8760375302358694  0.03489580701388917          1.0000   
         H         H         1.0       0.5960970757644617  0.9130524366980084  0.061853665887167  1.0000   
         H         H         1.0       0.5278658268522536  0.8932005092135994  0.08078945283559215          1.0000   
         H         H         1.0       0.5350363000743275  0.8559460416715893  0.06142310517775625          1.0000   
         C         C         1.0       0.5217687582099891  0.9404655830025552  0.061621077069556884         1.0000   
         C         C         1.0       0.5357476331271264  0.9438026798246829  0.0835439500993814 1.0000   
         C         C         1.0       0.527777993122562   0.9602165494019298  0.10216731058752533          1.0000   
         C         C         1.0       0.5067429471742773  0.9705582184402043  0.10117607120872638          1.0000   
         C         C         1.0       0.49357349655714344           0.9660258402076684 0.07898005300103839          1.0000   
         C         C         1.0       0.501440675011075   0.9512282754643884  0.058358315747321136         1.0000   
         C         C         1.0       0.5604206884053253  0.9325183561280835  0.08571326558283877          1.0000   
         C         C         1.0       0.5744164374607122  0.9541146705875387  0.07235097363876883          1.0000   
         C         C         1.0       0.5836810566841563  0.9720938534201851  0.08863585349699538          1.0000   
         C         C         1.0       0.5963875790813311  0.9897499909663854  0.07800176681294403          1.0000   
         C         C         1.0       0.5980383691864694  0.9932724514047154  0.051238771241902466         1.0000   
         C         C         1.0       0.5896795066162412  0.9762476519619928  0.03438079187813381          1.0000   
         C         C         1.0       0.5773557693948356  0.9571727248782481  0.044306316105457766         1.0000   
         C         C         1.0       0.5512266603839282  0.9242505483539869  0.13687755578560473          1.0000   
         C         C         1.0       0.5573871410504676  0.9296499766839931  0.16320502726104524          1.0000   
         C         C         1.0       0.5796996871768508  0.9360870707107273  0.17003980563490273          1.0000   
         C         C         1.0       0.5965907035609304  0.9346540328965025  0.1499031590512797 1.0000   
         C         C         1.0       0.5901517141132179  0.9285187402191487  0.12408113681027239          1.0000   
         C         C         1.0       0.5672799112902093  0.9269365146773334  0.11653749124029228          1.0000   
         C         C         1.0       0.5848126628083092  0.9473766727597392  0.19822222856481939          1.0000   
         C         C         1.0       0.5760496990985424  0.020622649651717007         0.17873836249292505          1.0000   
         C         C         1.0       0.5570066473887249  0.0067128650131078604        0.18389532344595627          1.0000   
         C         C         1.0       0.559679340842628   0.9840185089110007  0.19048570442397633          1.0000   
         C         C         1.0       0.581197741271716   0.9732877117911586  0.19039261628258042          1.0000   
         C         C         1.0       0.5997125727753034  0.9876313155039761  0.18363728236413163          1.0000   
         C         C         1.0       0.5976074381623707  0.010394950129205993         0.18010559899422068          1.0000   
         C         C         1.0       0.6086509807343682  0.9428780174168158  0.21160603509939294          1.0000   
         C         C         1.0       0.6187555462613341  0.9210676755738382  0.20854227249638776          1.0000   
         C         C         1.0       0.6374026236587504  0.915521785863466   0.22366079127132116          1.0000   
         C         C         1.0       0.6475172301335459  0.932258050739449   0.24038094018298978          1.0000   
         C         C         1.0       0.6386021917764805  0.9535106319041536  0.2414167025855461 1.0000   
         C         C         1.0       0.6192123041945032  0.9587096728602286  0.22903720917918022          1.0000   
         C         C         1.0       0.5615567526320929  0.954858255361652   0.24520732681691673          1.0000   
         C         C         1.0       0.5473875758089787  0.9485610844122108  0.2661218422040642 1.0000   
         C         C         1.0       0.5395611982790596  0.9259914367673868  0.2674176961762611 1.0000   
         C         C         1.0       0.5465554767621353  0.9107190311822096  0.24716038143557895          1.0000   
         C         C         1.0       0.5612029143504568  0.9166868843312485  0.2271383429809443 1.0000   
         C         C         1.0       0.5682021751802818  0.9393275681973037  0.22514451166030716          1.0000   
         H         H         1.0       0.5282121818745636  0.9286689211821593  0.04579936508805905          1.0000   
         H         H         1.0       0.5363902612055162  0.9671246977478604  0.11866261687833282          1.0000   
         H         H         1.0       0.5008170847411187  0.9800690399579521  0.12031527933574686          1.0000   
         H         H         1.0       0.49320627545758333           0.9469246096571164 0.03888944788377047          1.0000   
         H         H         1.0       0.581507432614422   0.9743060135595395  0.10981665621454333          1.0000   
         H         H         1.0       0.6045527027792126  0.0019742206953696773        0.09112143945342387          1.0000   
         H         H         1.0       0.5934068528237868  0.9777982693465804  0.013065810617464814         1.0000   
         H         H         1.0       0.5706881632682819  0.9453642731380615  0.03006606901956843          1.0000   
         H         H         1.0       0.5337770596559517  0.9187353082787004  0.1320849448282013 1.0000   
         H         H         1.0       0.5432009975173251  0.9308474752558892  0.1779812712967935 1.0000   
         H         H         1.0       0.6135408583214699  0.9392751743147989  0.15553050634578192          1.0000   
         H         H         1.0       0.602176839705044   0.928625625514629   0.10755550497426086          1.0000   
         H         H         1.0       0.5395689452893991  0.011892165926787213         0.18326249242660855          1.0000   
         H         H         1.0       0.545676022258215   0.9718702218924902  0.19580212114997217          1.0000   
         H         H         1.0       0.6166243547883847  0.9805165248113404  0.18278365798881346          1.0000   
         H         H         1.0       0.6125603251148226  0.021075455672334042         0.17449845490207144          1.0000   
         H         H         1.0       0.611235034242926   0.9058260048354002  0.19759820810154596          1.0000   
         H         H         1.0       0.6415480141927985  0.8967785032146499  0.22590550331105982          1.0000   
         H         H         1.0       0.6472052418139883  0.9671547040864265  0.2545673474679166 1.0000   
         H         H         1.0       0.6113874645256964  0.9753443491475527  0.23070547535178434          1.0000   
         H         H         1.0       0.5678148944627407  0.9719573751134879  0.24344979920807097          1.0000   
         H         H         1.0       0.5436707170083136  0.9614500240432083  0.2819408147116189 1.0000   
         H         H         1.0       0.542153033838213   0.8927125552376077  0.24515899234855434          1.0000   
         H         H         1.0       0.5670093689398863  0.9041163544392845  0.2117744274177    1.0000   
         C         C         1.0       0.6414417856580823  0.9257392489182565  0.3041500234184545 1.0000   
         C         C         1.0       0.6488359956092269  0.9324596019945203  0.32998154577470434          1.0000   
         C         C         1.0       0.6351712537786863  0.9447085279728462  0.3472065159568952 1.0000   
         C         C         1.0       0.6131026167271836  0.9475862922966665  0.340820295172494  1.0000   
         C         C         1.0       0.6045385814470404  0.938827464344145   0.3153953247173751 1.0000   
         C         C         1.0       0.6185617371198501  0.9279738107208994  0.29805154203372397          1.0000   
         H         H         1.0       0.6665132863224853  0.9288373770313824  0.33493614950165823          1.0000   
         H         H         1.0       0.6429345538494639  0.949214731354213   0.36679824690098334          1.0000   
         H         H         1.0       0.5867333197287711  0.9384936512534985  0.3111692872674737 1.0000   
         H         H         1.0       0.6113748408002458  0.9197849681145924  0.2801272689297117 1.0000   
         C         C         1.0       0.5788916496990693  0.9866430194114769  0.3312723157822578 1.0000   
         C         C         1.0       0.5745528749100536  0.9704274205059651  0.3505466017683993 1.0000   
         C         C         1.0       0.5523142519720737  0.96846028584665    0.36060948611674537          1.0000   
         C         C         1.0       0.5345661836315451  0.9810387218433368  0.3502224646463357 1.0000   
         C         C         1.0       0.5391675454770886  0.9961145914266865  0.3295775272252408 1.0000   
         C         C         1.0       0.5616345988562569  0.999069648037771   0.32058498790062756          1.0000   
         C         C         1.0       0.5954076706152912  0.956043439162374   0.3629733016209031 1.0000   
         C         C         1.0       0.6024679377707701  0.9747531245903601  0.3869272698047816 1.0000   
         C         C         1.0       0.5890712477507005  0.9761339884245368  0.41144363122303046          1.0000   
         C         C         1.0       0.5933013921214939  0.9930019900961999  0.4308214330186253 1.0000   
         C         C         1.0       0.6094686463772979  0.010258004238645091         0.4250305809198646 1.0000   
         C         C         1.0       0.6216410586853433  0.009432908888126423         0.4011188319870708 1.0000   
         C         C         1.0       0.618673594288829   0.9919989506589438  0.38261370028340613          1.0000   
         C         C         1.0       0.5736785207953804  0.9162110284091226  0.36520375251864245          1.0000   
         C         C         1.0       0.5624290478126158  0.9002205517694302  0.3814516359812811 1.0000   
         C         C         1.0       0.5696869231316832  0.8970338084964801  0.4080893193558517 1.0000   
         C         C         1.0       0.5885453102992529  0.9103309909223308  0.41711843545637717          1.0000   
         C         C         1.0       0.5985110637728728  0.9256179964119156  0.3996760062430871 1.0000   
         C         C         1.0       0.589356564629759   0.9321309139939058  0.37561237346340826          1.0000   
         C         C         1.0       0.553929504924747   0.8819362888532943  0.42766460490580577          1.0000   
         C         C         1.0       0.5055913084528363  0.9380694093081864  0.43440863923885725          1.0000   
         C         C         1.0       0.49955010379146625           0.9194145573329241 0.41910251299230483          1.0000   
         C         C         1.0       0.5151444445815611  0.9013540516194706  0.4161610323296255 1.0000   
         C         C         1.0       0.5343098411682827  0.9004871775125816  0.43243278143644065          1.0000   
         C         C         1.0       0.5387965307973914  0.9186678258206901  0.44875949411285465          1.0000   
         C         C         1.0       0.5258176481321699  0.9381141177340067  0.4487457145776972 1.0000   
         C         C         1.0       0.5653204535059202  0.8732233779785166  0.454401197315334  1.0000   
         C         C         1.0       0.5876004286228638  0.8635681081025791  0.4544734645598173 1.0000   
         C         C         1.0       0.5983323965657185  0.8583973215108015  0.4777220273129876 1.0000   
         C         C         1.0       0.5872511872214495  0.8596175196595963  0.503147594710863  1.0000   
         C         C         1.0       0.5652669521984288  0.8674333841851366  0.5030974714242361 1.0000   
         C         C         1.0       0.5540060536760691  0.8726462627799219  0.4796536221869646 1.0000   
         C         C         1.0       0.5277064190566426  0.8442906667649472  0.42386957832447786          1.0000   
         C         C         1.0       0.5220640245843369  0.8224381359046942  0.4140562370142151 1.0000   
         C         C         1.0       0.5334556765053814  0.813837643621251   0.3921875858221415 1.0000   
         C         C         1.0       0.5519068588505714  0.8263859503332639  0.381246775712231  1.0000   
         C         C         1.0       0.558918907279275   0.8472792736398101  0.39311523104808616          1.0000   
         C         C         1.0       0.5456362087386001  0.857979828227885   0.41304671738142074          1.0000   
         H         H         1.0       0.5955634052547947  0.9906519464696062  0.3222511170821138 1.0000   
         H         H         1.0       0.55111015669712    0.9602098922438782  0.3801122490532061 1.0000   
         H         H         1.0       0.5175956928466177  0.9799986464356617  0.3576853747963012 1.0000   
         H         H         1.0       0.5655243170253724  0.010647944447351954         0.3025909917936274 1.0000   
         H         H         1.0       0.575943222946202   0.9638804634036674  0.41425079582351093          1.0000   
         H         H         1.0       0.5835069391536137  0.9945803182449076  0.44968427582196374          1.0000   
         H         H         1.0       0.6344744578487044  0.023086864585513345         0.398097640280424  1.0000   
         H         H         1.0       0.627385662760856   0.9919635042867052  0.3628853295258194 1.0000   
         H         H         1.0       0.5663984476364794  0.9208520467809291  0.3454532344000535 1.0000   
         H         H         1.0       0.5470551506816776  0.8904595592575821  0.37367326658121897          1.0000   
         H         H         1.0       0.5940358079666878  0.9080693516957236  0.4374163472693457 1.0000   
         H         H         1.0       0.6127122020144106  0.9357327232364806  0.4059678228521246 1.0000   
         H         H         1.0       0.48367680769653537           0.9174143399186682 0.4081180022980473 1.0000   
         H         H         1.0       0.5125914532172094  0.8877895438431749  0.4009673212019659 1.0000   
         H         H         1.0       0.5547236152433709  0.9190751711030226  0.45824746612185063          1.0000   
         H         H         1.0       0.5323697454089553  0.9534119849030604  0.46042708539538046          1.0000   
         H         H         1.0       0.5961963853972717  0.8627335845625207  0.4359815279974055 1.0000   
         H         H         1.0       0.615279443363201   0.8514666731882579  0.47777830585821374          1.0000   
         H         H         1.0       0.5575185189151461  0.8675944868372606  0.5215769829162274 1.0000   
         H         H         1.0       0.5358401795320634  0.877732214899902   0.48081871416267663          1.0000   
         H         H         1.0       0.5214090560509353  0.8509388637292702  0.4427013262972108 1.0000   
         H         H         1.0       0.5101748512438705  0.8132029492234568  0.42600971733898463          1.0000   
         H         H         1.0       0.5615566721912697  0.8193109610045438  0.3636731642456338 1.0000   
         H         H         1.0       0.5731393233669668  0.8555463415631774  0.38347956953131973          1.0000   
         C         C         1.0       0.5514897886623639  0.21253489505397394           0.2596552495912963 1.0000   
         C         C         1.0       0.5511159366337461  0.23440967284060266           0.2684299011275366 1.0000   
         C         C         1.0       0.5692240305970807  0.24451354854840424           0.28160154463952236          1.0000   
         C         C         1.0       0.5894744880337528  0.23305062881117355           0.28550614542550307          1.0000   
         C         C         1.0       0.5892061440370532  0.20898212850204217           0.2778136185174516 1.0000   
         C         C         1.0       0.5697248664277124  0.19910011688485676           0.26577546011853753          1.0000   
         H         H         1.0       0.5375541309178803  0.24561273599494096           0.2620210295359815 1.0000   
         H         H         1.0       0.5659977753118609  0.2624553230101448  0.2874936593242768 1.0000   
         H         H         1.0       0.603809228272923   0.1986489194219536  0.28147724642711003          1.0000   
         H         H         1.0       0.5687382622520766  0.1809996265144275  0.2621228502191582 1.0000   
         C         C         1.0       0.6228577371884586  0.21655019276805065           0.3300228657604522 1.0000   
         C         C         1.0       0.6302593027474123  0.23342272150806367           0.31199354406678104          1.0000   
         C         C         1.0       0.653346098120017   0.23664416712641478           0.3102973580028663 1.0000   
         C         C         1.0       0.6694039466436016  0.2227355794527612  0.3240418318034062 1.0000   
         C         C         1.0       0.6607991756501065  0.20565083587774358           0.3414680301912782 1.0000   
         C         C         1.0       0.6374528523228002  0.20291135322890852           0.3429459234286509 1.0000   
         C         C         1.0       0.6119170299502745  0.24703673265142953           0.2955786311572737 1.0000   
         C         C         1.0       0.6067377072191502  0.2683197131929057  0.31725816947567176          1.0000   
         C         C         1.0       0.6201262919583512  0.28715002974915466           0.31625748829260586          1.0000   
         C         C         1.0       0.6203180477745677  0.30426627507644644           0.336312565199591  1.0000   
         C         C         1.0       0.6043600538641954  0.3030725960984931  0.35561652374530195          1.0000   
         C         C         1.0       0.5897063233931032  0.28421032432778726           0.3571983911630839 1.0000   
         C         C         1.0       0.590727203515788   0.2669656029384412  0.33734722349564644          1.0000   
         C         C         1.0       0.6318774421827835  0.23349880941491727           0.25122319539772525          1.0000   
         C         C         1.0       0.6350053344679276  0.2330142914094978  0.22395718871936213          1.0000   
         C         C         1.0       0.6292265110754849  0.25189735353155446           0.20909154274730643          1.0000   
         C         C         1.0       0.6215405692824558  0.2712815634365706  0.2234675112224041 1.0000   
         C         C         1.0       0.6183423127312193  0.2710779143287992  0.2511828563082614 1.0000   
         C         C         1.0       0.6232905170237318  0.25188428538695257           0.26604511671997894          1.0000   
         C         C         1.0       0.6264779745879288  0.2495604912234164  0.17622010584275205          1.0000   
         C         C         1.0       0.6708233346244378  0.195913626591423   0.14241668757886533          1.0000   
         C         C         1.0       0.6506652783990394  0.2013576004666899  0.13000557105425625          1.0000   
         C         C         1.0       0.6367445630131267  0.2183838422442857  0.14091040258818602          1.0000   
         C         C         1.0       0.6436227342460279  0.23129574857245577           0.16288679342544335          1.0000   
         C         C         1.0       0.6661784144338585  0.22899011683967002           0.17152098432977908          1.0000   
         C         C         1.0       0.6793428915856098  0.21146682569887368           0.1620530825708165 1.0000   
         C         C         1.0       0.6330326156430869  0.27289730645795723           0.16074247359882   1.0000   
         C         C         1.0       0.6505486605265046  0.2866040990944416  0.1692571310539663 1.0000   
         C         C         1.0       0.6598862738650906  0.3037357000626736  0.1518171959518637 1.0000   
         C         C         1.0       0.6472240756013963  0.31094940631541373           0.1291349146920397 1.0000   
         C         C         1.0       0.6301986154311733  0.2969505090391105  0.12002614356370715          1.0000   
         C         C         1.0       0.6238902975870166  0.2776138063375025  0.1350217263925267 1.0000   
         C         C         1.0       0.5825204862994486  0.25643460127020995           0.16869530798122342          1.0000   
         C         C         1.0       0.5598444636398469  0.24841954701642063           0.16318030544402504          1.0000   
         C         C         1.0       0.5555830509313301  0.2251574115812998  0.16355344297122806          1.0000   
         C         C         1.0       0.5714977716678917  0.2109285419884699  0.17429852512897703          1.0000   
         C         C         1.0       0.5923498661596845  0.21850322610913817           0.18080615881210213          1.0000   
         C         C         1.0       0.5995253720257605  0.24119600080105846           0.1764435237764048 1.0000   
         H         H         1.0       0.6039585372486932  0.21338629658779215           0.3356331406745104 1.0000   
         H         H         1.0       0.6600849459767447  0.24975410063751158           0.29562938503626257          1.0000   
         H         H         1.0       0.6869540703939866  0.2249897553244608  0.31902757421255734          1.0000   
         H         H         1.0       0.6311991200567454  0.1891126379758057  0.3559363111657483 1.0000   
         H         H         1.0       0.6327786870824874  0.2892166381042865  0.3016267908051647 1.0000   
         H         H         1.0       0.6313290862928989  0.3189407037052069  0.335851965631787  1.0000   
         H         H         1.0       0.5771699818401275  0.2818844157250815  0.37357325851443546          1.0000   
         H         H         1.0       0.5781690876236668  0.252652665961662   0.3387091617358945 1.0000   
         H         H         1.0       0.633195565404809   0.21745348987712354           0.2617215817110137 1.0000   
         H         H         1.0       0.638428898723826   0.2165327153212655  0.2129363052200101 1.0000   
         H         H         1.0       0.6147834128928991  0.28750101520432536           0.21509598122044832          1.0000   
         H         H         1.0       0.6121859839365873  0.28679856931388154           0.2612684605223941 1.0000   
         H         H         1.0       0.644036633952058   0.18895938390485684           0.1145152636079326 1.0000   
         H         H         1.0       0.6192275017094078  0.2187432300287084  0.1321423235385626 1.0000   
         H         H         1.0       0.6726311832355045  0.24106238314998935           0.18704667855857973          1.0000   
         H         H         1.0       0.6952944127907077  0.20700252767513996           0.17095107856476596          1.0000   
         H         H         1.0       0.6604261895293864  0.28152635825764905           0.18634205857342606          1.0000   
         H         H         1.0       0.6773411348075417  0.3122185580505369  0.15640424549885873          1.0000   
         H         H         1.0       0.6216950065516629  0.3012244440639073  0.10151831895065709          1.0000   
         H         H         1.0       0.6134332259071671  0.264651319642126   0.12589262212193866          1.0000   
         H         H         1.0       0.5866279968639774  0.27545209923495106           0.16561022969992462          1.0000   
         H         H         1.0       0.5462006130855157  0.26100731872084193           0.16192284703968535          1.0000   
         H         H         1.0       0.5672768540203501  0.19280085657526813           0.17665663848559732          1.0000   
         H         H         1.0       0.6047688915237622  0.2067149244332633  0.18995056552157866          1.0000   
         C         C         1.0       0.5655241267809141  0.13827086717645082           0.4854700610380511 1.0000   
         C         C         1.0       0.5641293912335386  0.1624794794584736  0.4864188848777071 1.0000   
         C         C         1.0       0.5779601733146703  0.17512426665989458           0.5018675326021151 1.0000   
         C         C         1.0       0.5965537978620943  0.16520254346798055           0.5152297618996009 1.0000   
         C         C         1.0       0.598417794915562   0.14085496694231617           0.5137623588745179 1.0000   
         C         C         1.0       0.5821327199051392  0.12782817946652375           0.4996387302627676 1.0000   
         H         H         1.0       0.5518658459336905  0.17117969410771822           0.4758082164772415 1.0000   
         H         H         1.0       0.5765358381134142  0.19393462579512177           0.5024840309778633 1.0000   
         H         H         1.0       0.6088396528924664  0.13079590533100738           0.5266920382547229 1.0000   
         H         H         1.0       0.5825838769971871  0.10900974674680595           0.5024517258761984 1.0000   
         C         C         1.0       0.6431717463708155  0.1677212460552557  0.5674677201525532 1.0000   
         C         C         1.0       0.6361795279250714  0.16847170825879526           0.5402875181856852 1.0000   
         C         C         1.0       0.6476175471225832  0.15638096396846163           0.5206571489254528 1.0000   
         C         C         1.0       0.6667214446793519  0.144861080792124   0.5278159986516887 1.0000   
         C         C         1.0       0.6750700329999069  0.14575008468489167           0.5535061466091589 1.0000   
         C         C         1.0       0.6629797038124705  0.15603242632027262           0.5747633650836117 1.0000   
         C         C         1.0       0.6135568294901208  0.1809610063419058  0.5328863234338148 1.0000   
         C         C         1.0       0.5982028894098577  0.18782100277907132           0.5577833555356561 1.0000   
         C         C         1.0       0.5898981559219963  0.20929165855133322           0.5611315079992263 1.0000   
         C         C         1.0       0.5548536999079214  0.2067715873451462  0.09588419191206822          1.0000   
         C         C         1.0       0.5502200316695207  0.18967700711471322           0.11475667795991373          1.0000   
         C         C         1.0       0.5599491978718292  0.16787564788950107           0.11111244961771466          1.0000   
         C         C         1.0       0.5742182925121816  0.1634193493737389  0.08891375278802839          1.0000   
         C         C         1.0       0.6217100420654675  0.20584825684193173           0.488193034817988  1.0000   
         C         C         1.0       0.6313090147011361  0.22462184459129664           0.4758571947832299 1.0000   
         C         C         1.0       0.6431143254327654  0.2417305318424814  0.49080870248789876          1.0000   
         C         C         1.0       0.6434291587058     0.23906264336753452           0.518537401680182  1.0000   
         C         C         1.0       0.6343887116636224  0.21984087817325051           0.5303674392193667 1.0000   
         C         C         1.0       0.6239507563120582  0.20229852504497967           0.5160689205015926 1.0000   
         C         C         1.0       0.6586960268543877  0.25921098087888395           0.4745388767812259 1.0000   
         C         C         1.0       0.708980974524678   0.20388460757965549           0.45798249817909714          1.0000   
         C         C         1.0       0.6938150880858159  0.2101703600986566  0.4376664382370418 1.0000   
         C         C         1.0       0.678620801686647   0.22809941654962332           0.44263632236745565          1.0000   
         C         C         1.0       0.6786271803678203  0.24011067546946233           0.46620696326451916          1.0000   
         C         C         1.0       0.6957116757711996  0.2351353340159539  0.4852569294456386 1.0000   
         C         C         1.0       0.7103664727169295  0.21779376517273114           0.4811625326410247 1.0000   
         C         C         1.0       0.6686653641587866  0.28096732170352334           0.49086255886526964          1.0000   
         C         C         1.0       0.6560144882501595  0.29199045963825837           0.5098909559291434 1.0000   
         C         C         1.0       0.6643693415188329  0.3101037425856575  0.5263111276473049 1.0000   
         C         C         1.0       0.6865887754376809  0.3171865809393998  0.5233146031528467 1.0000   
         C         C         1.0       0.699729021948819   0.30774100683064    0.5028648131527517 1.0000   
         C         C         1.0       0.6910215798697295  0.2898419349419781  0.4873243144522537 1.0000   
         C         C         1.0       0.6599424350426402  0.2812583065394759  0.4302802634599181 1.0000   
         C         C         1.0       0.6507708929132211  0.29532808226177176           0.4119009680708571 1.0000   
         C         C         1.0       0.6290737763471518  0.30359275023470633           0.4152666784968547 1.0000   
         C         C         1.0       0.6155222984380477  0.29456806772467714           0.435633705304977  1.0000   
         C         C         1.0       0.6239304630379132  0.27805316661704876           0.4526879853711505 1.0000   
         C         C         1.0       0.6472830104625078  0.27283916885263887           0.4515519518522992 1.0000   
         H         H         1.0       0.6194289783464615  0.16625998460485622           0.08723800679440942          1.0000   
         H         H         1.0       0.6412314159302108  0.15530994565692463           0.5009773240476487 1.0000   
         H         H         1.0       0.6754551277994044  0.13529927813438705           0.51256243404911   1.0000   
         H         H         1.0       0.6535432304791843  0.1412898909433246  0.09268673825424982          1.0000   
         H         H         1.0       0.5963672804394359  0.2238687863129314  0.5513587577663422 1.0000   
         H         H         1.0       0.546065668777434   0.22381690016786637           0.09521292951033168          1.0000   
         H         H         1.0       0.5579547240073004  0.1551825745548105  0.12542037487474125          1.0000   
         H         H         1.0       0.5812947147522912  0.1460633642488985  0.0875404293892731 1.0000   
         H         H         1.0       0.6151148869807711  0.19234217303299164           0.4739368867904091 1.0000   
         H         H         1.0       0.6291829858187589  0.22586555348579876           0.4548878099531403 1.0000   
         H         H         1.0       0.6528921808919913  0.2503828361239121  0.5308335599580979 1.0000   
         H         H         1.0       0.6402611628603565  0.21555619230495016           0.5509846947823083 1.0000   
         H         H         1.0       0.6916960623941257  0.2003399334945762  0.4196999101463914 1.0000   
         H         H         1.0       0.6656400234349821  0.23357421569728468           0.4271044278297036 1.0000   
         H         H         1.0       0.6971622558872622  0.24355091487186975           0.5044533403915646 1.0000   
         H         H         1.0       0.7220936840826757  0.2142994862676126  0.4976904172934992 1.0000   
         H         H         1.0       0.6385807049581007  0.2877721984246809  0.5122099412724983 1.0000   
         H         H         1.0       0.6540388191840963  0.3179497485367626  0.5424828140354235 1.0000   
         H         H         1.0       0.7169521092927471  0.31431075910011735           0.50127778959503   1.0000   
         H         H         1.0       0.7016283780423987  0.280329307090212   0.47392107849286   1.0000   
         H         H         1.0       0.6786590179137176  0.2793603033603924  0.4303075425068008 1.0000   
         H         H         1.0       0.6627916268731613  0.30092525745484033           0.3969955209473793 1.0000   
         H         H         1.0       0.5971304118312668  0.2982603806355368  0.43562824145971674          1.0000   
         H         H         1.0       0.6131574307554226  0.27236694826146746           0.46885116236307406          1.0000   
         C         C         1.0       0.676978680363639   0.015612208553211772         0.20375370909029047          1.0000   
         C         C         1.0       0.6674159240082319  0.006029920339234885         0.1807036879411757 1.0000   
         C         C         1.0       0.6700595686676261  0.01789640093328826           0.15708164809586764          1.0000   
         C         C         1.0       0.6815705616350356  0.03880507149702358           0.1556964015599262 1.0000   
         C         C         1.0       0.6920118703928216  0.046042639668773595         0.179860684440251  1.0000   
         C         C         1.0       0.6919639628862053  0.03314107151677059           0.20220807880750566          1.0000   
         H         H         1.0       0.6580080252617787  0.9890439011510049  0.18320677448973427          1.0000   
         H         H         1.0       0.6658240973782694  0.009545902716148635         0.1385899402511978 1.0000   
         H         H         1.0       0.7012395926575081  0.0627319610998     0.18206986845894738          1.0000   
         H         H         1.0       0.7021948723955932  0.04042259187263474           0.21912170735795328          1.0000   
         C         C         1.0       0.667112681092781   0.0895748531986809  0.15871521777832814          1.0000   
         C         C         1.0       0.679595733872192   0.08152559811238454           0.136240011985029  1.0000   
         C         C         1.0       0.689532090743335   0.09760309238035365           0.11916007796875774          1.0000   
         C         C         1.0       0.6867974992466878  0.12069480701551581           0.12359985046587219          1.0000   
         C         C         1.0       0.6737995483336024  0.12917178614255834           0.14593054567167144          1.0000   
         C         C         1.0       0.6641644441230923  0.11281541419737105           0.16346183790089255          1.0000   
         C         C         1.0       0.6831888608100114  0.05479636337049678           0.12939711726259465          1.0000   
         C         C         1.0       0.6641660099579935  0.05110804372701288           0.1063791622465634 1.0000   
         C         C         1.0       0.6671043523734879  0.05406834221859898           0.0791794506984664 1.0000   
         C         C         1.0       0.6492403788094121  0.050826568201212396         0.06186337574414543          1.0000   
         C         C         1.0       0.6271007981407981  0.045137279693139076         0.0709431845901469 1.0000   
         C         C         1.0       0.6229789022265108  0.04429795853723517           0.09837825570132026          1.0000   
         C         C         1.0       0.640892196185935   0.04795817339943548           0.11629569340122575          1.0000   
         C         C         1.0       0.7272788630912066  0.062001376015681835         0.13399975876761627          1.0000   
         C         C         1.0       0.7478417295596929  0.06623720245850401           0.12177734307107352          1.0000   
         C         C         1.0       0.7526578716769851  0.059721688990918176         0.09536594241665455          1.0000   
         C         C         1.0       0.7372402290603464  0.04463963139061827           0.08324013408444424          1.0000   
         C         C         1.0       0.7165719405807994  0.03870462751633808           0.09592398585209311          1.0000   
         C         C         1.0       0.7090953715248698  0.05075559987806318           0.1193494491316577 1.0000   
         C         C         1.0       0.7996808522984835  0.09257362290809798           0.576434246397195  1.0000   
         C         C         1.0       0.7424768160933712  0.13970900997045818           0.5617837881496491 1.0000   
         C         C         1.0       0.7570666850050705  0.14444977407552168           0.5827755456734045 1.0000   
         C         C         1.0       0.7765660425338049  0.13184927762744814           0.5856897653107742 1.0000   
         C         C         1.0       0.7804986456336588  0.1123175188391734  0.569540611034083  1.0000   
         C         C         1.0       0.7653517559254069  0.10814644410759379           0.5479261490560885 1.0000   
         C         C         1.0       0.7474232078407052  0.12175737394507526           0.5431508936716077 1.0000   
         C         C         1.0       0.8110992954885938  0.07838487812617514           0.5516036882285507 1.0000   
         C         C         1.0       0.8206429130675443  0.05741350746630443           0.5546713995578652 1.0000   
         C         C         1.0       0.8230748601698259  0.042596287954162246         0.5327847184961405 1.0000   
         C         C         1.0       0.820907012406131   0.0497684635036146  0.5068802376654914 1.0000   
         C         C         1.0       0.8168444271025675  0.07326162447229934           0.5037299170778337 1.0000   
         C         C         1.0       0.8121177772646517  0.08787365501745592           0.5261928626512674 1.0000   
         C         C         1.0       0.830569736197099   0.12335372353666672           0.5829119104181892 1.0000   
         C         C         1.0       0.8507605886146136  0.13264301263778552           0.5941615656010135 1.0000   
         C         C         1.0       0.8631016134441415  0.12109592307562651           0.6132799285557955 1.0000   
         C         C         1.0       0.8165173504939868  0.08352671789842442           0.1365951057951981 1.0000   
         C         C         1.0       0.8008456460830601  0.07388770530452834           0.1203078516102128 1.0000   
         C         C         1.0       0.8231017803958496  0.1025041437495399  0.5900520169763217 1.0000   
         H         H         1.0       0.6578115611294535  0.07780527307840424           0.17233534539830306          1.0000   
         H         H         1.0       0.6981510583483426  0.0922102935810723  0.1002629008341671 1.0000   
         H         H         1.0       0.6956918689148601  0.132645161033915   0.11226149291394279          1.0000   
         H         H         1.0       0.6543365216471366  0.12140751574514326           0.18089165884867348          1.0000   
         H         H         1.0       0.6843992989518264  0.0614105588943467  0.0746644283892174 1.0000   
         H         H         1.0       0.6538422137876916  0.05361428481034558           0.04026264791514955          1.0000   
         H         H         1.0       0.6055384579331625  0.040792700355935185         0.10607488255761047          1.0000   
         H         H         1.0       0.6379486128791944  0.04611115763719333           0.13698508322829095          1.0000   
         H         H         1.0       0.7244081608106752  0.07108616794278018           0.15365246394328233          1.0000   
         H         H         1.0       0.7567560229497957  0.07929052686630794           0.13213067741484286          1.0000   
         H         H         1.0       0.7401010835212561  0.037030323087208   0.06246781720059723          1.0000   
         H         H         1.0       0.7055117747510837  0.028610716655441685         0.08195227526945004          1.0000   
         H         H         1.0       0.7538174568167642  0.15748574649855812           0.5977825146164009 1.0000   
         H         H         1.0       0.7864337112203411  0.13584490527175744           0.6042360366944087 1.0000   
         H         H         1.0       0.7664672996557726  0.09174181815753557           0.5375722342033747 1.0000   
         H         H         1.0       0.7347856253881501  0.1168715340036472  0.5275253777671542 1.0000   
         H         H         1.0       0.8208808508318322  0.05176691051773777           0.5750476608057222 1.0000   
         H         H         1.0       0.8297583497155483  0.024948700319872508         0.5363417466611742 1.0000   
         H         H         1.0       0.8140100329905138  0.08077614467167461           0.4833495116528394 1.0000   
         H         H         1.0       0.8062140897194349  0.1059202829030008  0.5239613762576705 1.0000   
         H         H         1.0       0.8224250740852568  0.13296281615177477           0.5676361935627557 1.0000   
         H         H         1.0       0.8574719979116509  0.14894416941216837           0.5865034948395629 1.0000   
         H         H         1.0       0.821434403526603   0.07513846157892243           0.15498413535591835          1.0000   
         H         H         1.0       0.7928823570691717  0.05816213700654288           0.12481171683913037          1.0000   
         C         C         1.0       0.7780710135573042  0.027522046644114836         0.4739316452554513 1.0000   
         C         C         1.0       0.7706616808104072  0.023750928943017557         0.44871480210934445          1.0000   
         C         C         1.0       0.7519195024076598  0.03458098938110407           0.4401704191771978 1.0000   
         C         C         1.0       0.7409776809565534  0.05081650335476533           0.4569621431992908 1.0000   
         C         C         1.0       0.7462410077671342  0.0519408501479679  0.4848878983059209 1.0000   
         C         C         1.0       0.7655611785129426  0.04150118392540458           0.49246387189415747          1.0000   
         H         H         1.0       0.7812456934795867  0.013713081353575296         0.43450456718430774          1.0000   
         H         H         1.0       0.7459514002817917  0.03145766568303787           0.41955972230933497          1.0000   
         H         H         1.0       0.7336543368173774  0.06103912525124657           0.4990008823651579 1.0000   
         H         H         1.0       0.7707606185862654  0.04290164423855815           0.5142222964420883 1.0000   
         C         C         1.0       0.7354616967204222  0.10512988109330568           0.4645635807869834 1.0000   
         C         C         1.0       0.7173429204697472  0.09174269454775831           0.45520062702703823          1.0000   
         C         C         1.0       0.6966654537186191  0.10204181355951265           0.4496863003525411 1.0000   
         C         C         1.0       0.6945270988850878  0.12527955599791482           0.4546079512739138 1.0000   
         C         C         1.0       0.71235627185261    0.13820477100839984           0.4671055052257896 1.0000   
         C         C         1.0       0.7332990685746226  0.12838998835347615           0.4696871388048956 1.0000   
         C         C         1.0       0.7184155289506186  0.06492761592249749           0.4466957938338074 1.0000   
         C         C         1.0       0.6981263866206779  0.048680645165954974         0.45874751335590885          1.0000   
         C         C         1.0       0.6830817926018771  0.05562593264360149           0.47939486671950454          1.0000   
         C         C         1.0       0.662747045558865   0.04588632662927588           0.48494035837083405          1.0000   
         C         C         1.0       0.6560393441303802  0.026749187644698358         0.4704081171561694 1.0000   
         C         C         1.0       0.6711048762822656  0.017468788153214954         0.45197767257685245          1.0000   
         C         C         1.0       0.6918464635131383  0.028035672552228164         0.4467498822627956 1.0000   
         C         C         1.0       0.7357981910531648  0.07342046593074236           0.4006309054220376 1.0000   
         C         C         1.0       0.7349106794980608  0.07645465953630096           0.37372563106698736          1.0000   
         C         C         1.0       0.7165581698133285  0.06997031726879056           0.3578808093222959 1.0000   
         C         C         1.0       0.697444142340936   0.06409790200140694           0.3719916069075614 1.0000   
         C         C         1.0       0.6975496252175403  0.06237663798318198           0.3989810815243431 1.0000   
         C         C         1.0       0.7177843613728937  0.06476973244390903           0.41419121797475245          1.0000   
         C         C         1.0       0.7161886182636161  0.07471967632260632           0.32593428578627576          1.0000   
         C         C         1.0       0.6933914549006732  0.147112683855345   0.3319500645380798 1.0000   
         C         C         1.0       0.716790640993574   0.14267526489117704           0.33115351076345095          1.0000   
         C         C         1.0       0.723998206904813   0.12008472348869328           0.3305732334915795 1.0000   
         C         C         1.0       0.7087130909974225  0.10186858351469791           0.3294099894748835 1.0000   
         C         C         1.0       0.6856709284955009  0.10666291397853553           0.3304804048798221 1.0000   
         C         C         1.0       0.6781962175016975  0.12925251504137006           0.3330100242425093 1.0000   
         C         C         1.0       0.6991932339859837  0.059953366611898415         0.3084843814168646 1.0000   
         C         C         1.0       0.6934735312774589  0.03705831977315628           0.31408960470332997          1.0000   
         C         C         1.0       0.6811271529399175  0.023780273201080337         0.29648621063880065          1.0000   
         C         C         1.0       0.6748195561914415  0.030791631571412736         0.2719111202392251 1.0000   
         C         C         1.0       0.6785447554615477  0.05350648468765797           0.26621365357786303          1.0000   
         C         C         1.0       0.6920209908078353  0.0675823005513088  0.28233199388625957          1.0000   
         C         C         1.0       0.7529328465614611  0.07853623371588861           0.2977591763054054 1.0000   
         C         C         1.0       0.7753779407219846  0.07355986535660966           0.29331433734323503          1.0000   
         C         C         1.0       0.7844891795095925  0.05270193623388158           0.3035353378407311 1.0000   
         C         C         1.0       0.7699773771110752  0.037847414696391586         0.3168928626435053 1.0000   
         C         C         1.0       0.7481759754649     0.044439090422070386         0.3239394948577572 1.0000   
         C         C         1.0       0.7397233836541933  0.06618480552580959           0.3163087378095701 1.0000   
         H         H         1.0       0.7519256923116734  0.0968274703857866  0.46794885357793026          1.0000   
         H         H         1.0       0.6825890588356658  0.09380125408758565           0.4405625940127763 1.0000   
         H         H         1.0       0.67831633376967    0.13290819150304847           0.45058728363566464          1.0000   
         H         H         1.0       0.7481642424331587  0.1376615112089418  0.4785394112529535 1.0000   
         H         H         1.0       0.6864309649338423  0.07197103759239609           0.4892183350863078 1.0000   
         H         H         1.0       0.6503705163091559  0.054143172853007605         0.49860558826438434          1.0000   
         H         H         1.0       0.6660556854995954  0.0022902526521915156        0.43967905752503844          1.0000   
         H         H         1.0       0.7022492275611343  0.02221471746092152           0.4289611645735865 1.0000   
         H         H         1.0       0.7511196558501471  0.07964856433403411           0.410802830629164  1.0000   
         H         H         1.0       0.7495761021599023  0.0849702976745277  0.3645008907537958 1.0000   
         H         H         1.0       0.6814548466086601  0.060575876772847405         0.36214435069396067          1.0000   
         H         H         1.0       0.6823252746961712  0.05834193192442281           0.410914951449173  1.0000   
         H         H         1.0       0.728753453448674   0.15718149969051012           0.3301244021522259 1.0000   
         H         H         1.0       0.7418524747639272  0.11614358999117148           0.3290620488404385 1.0000   
         H         H         1.0       0.6728624599652786  0.0926179647943132  0.3295377674310742 1.0000   
         H         H         1.0       0.6596780936206856  0.13207791789299364           0.33266418959495964          1.0000   
         H         H         1.0       0.6988691950396646  0.030222103572335124         0.3316587738991081 1.0000   
         H         H         1.0       0.6809067183359709  0.005784932797626485         0.3018341148270317 1.0000   
         H         H         1.0       0.6707214985184051  0.06093255173605364           0.24735748569564023          1.0000   
         H         H         1.0       0.6944659777882929  0.08482119933339217           0.275180553389116  1.0000   
         H         H         1.0       0.7442864416138303  0.09440989548321199           0.2879998467035225 1.0000   
         H         H         1.0       0.787636178580167   0.08487134380356742           0.28272988648814257          1.0000   
         H         H         1.0       0.7772574216100165  0.02144199117441281           0.3247368162744513 1.0000   
         H         H         1.0       0.7385588740565524  0.03364019829399758           0.3375971406328346 1.0000   
         C         C         1.0       0.12035042283069389           0.15841300804421382          0.1869744290769989 1.0000   
         C         C         1.0       0.13371929894476928           0.16177997253507237          0.1647095097903739 1.0000   
         C         C         1.0       0.1483084246432031  0.14485371514064502           0.15547616713466816          1.0000   
         C         C         1.0       0.15032801715441899           0.12436853615391696          0.1693525381362737 1.0000   
         C         C         1.0       0.13707726330323336           0.12158729693807002          0.191867423269131  1.0000   
         C         C         1.0       0.12193116770363616           0.1382246347359724 0.20082575255831497          1.0000   
         H         H         1.0       0.13154689174891346           0.17756254419124276          0.15159094902290363          1.0000   
         H         H         1.0       0.15848133058922362           0.14736960060774287          0.13735227312906043          1.0000   
         H         H         1.0       0.13917026547146827           0.10642561901717613          0.20342051596132937          1.0000   
         H         H         1.0       0.1095887915544793  0.13390808942547894           0.21674083433525526          1.0000   
         C         C         1.0       0.1674306012047601  0.05958824381871852           0.17141299776520175          1.0000   
         C         C         1.0       0.1548365313804212  0.07860114400615639           0.16441219190114445          1.0000   
         C         C         1.0       0.13147479955293323           0.07377270230573188          0.15771324339755446          1.0000   
         C         C         1.0       0.12152784097855227           0.05292338394006668          0.16148882607634846          1.0000   
         C         C         1.0       0.13440699522911986           0.034142553505445816         0.16693934662464627          1.0000   
         C         C         1.0       0.1572158684594868  0.037995384350983485         0.1722615318502936 1.0000   
         C         C         1.0       0.16506801405185853           0.10428243566263584          0.15892458913083832          1.0000   
         C         C         1.0       0.1877674543048546  0.11050107640947793           0.1748485856677235 1.0000   
         C         C         1.0       0.20365487194117307           0.1252549306207834 0.16220005220046194          1.0000   
         C         C         1.0       0.2209660498792631  0.13587520201536013           0.17647240913237966          1.0000   
         C         C         1.0       0.22384090349920602           0.13142507603833928          0.20359543485920964          1.0000   
         C         C         1.0       0.2096104852532157  0.11429046869029226           0.2157847427054354 1.0000   
         C         C         1.0       0.1921253731646158  0.1043783919816008  0.20136128752526225          1.0000   
         C         C         1.0       0.15768773125151847           0.10982464210525006          0.10725174455028517          1.0000   
         C         C         1.0       0.162834768297364   0.1050605237555145  0.08111292100555692          1.0000   
         C         C         1.0       0.18183425410085713           0.09298589451811612          0.07296438254417884          1.0000   
         C         C         1.0       0.1958654507530075  0.08422827498697583           0.09400879955243692          1.0000   
         C         C         1.0       0.1898225686063784  0.0887407519422957  0.12115927408742679          1.0000   
         C         C         1.0       0.17085396486322468           0.10177041238275701          0.12819494443948173          1.0000   
         C         C         1.0       0.18759868276123695           0.08499511550901895          0.04200131523741857          1.0000   
         C         C         1.0       0.13913234909313538           0.027860031679709962         0.039149741150700024         1.0000   
         C         C         1.0       0.13263986624953947           0.04925542226697632          0.03174966395420453          1.0000   
         C         C         1.0       0.14810780411515204           0.06670633909912782          0.03320230721835116          1.0000   
         C         C         1.0       0.1706120441928633  0.06355335496667491           0.03990608591201905          1.0000   
         C         C         1.0       0.17708963158094262           0.041221313773204704         0.04719032395607071          1.0000   
         C         C         1.0       0.1619320775795716  0.023335904663261964         0.04628158349759204          1.0000   
         C         C         1.0       0.21432344313160948           0.0809017856930987 0.037085600771515015         1.0000   
         C         C         1.0       0.23118805427873346           0.09567255344885406          0.047598682244717416         1.0000   
         C         C         1.0       0.2544654431298957  0.09005514084116961           0.0448849222999328 1.0000   
         C         C         1.0       0.2614238697875746  0.07196959944963366           0.02831123959572857          1.0000   
         C         C         1.0       0.2451417044601064  0.05894075354080308           0.01512257582818144          1.0000   
         C         C         1.0       0.22220277213185072           0.06311402643898312          0.01974730057480767          1.0000   
         C         C         1.0       0.1844296040550414  0.06025561217265962           0.5258092844631423 1.0000   
         C         C         1.0       0.1776955475016932  0.07077621558639446           0.5040211874298341 1.0000   
         C         C         1.0       0.1796235293220801  0.0944590560254265  0.5029777037747231 1.0000   
         C         C         1.0       0.18813845538204654           0.1069744318156734 0.5237848289193571 1.0000   
         C         C         1.0       0.18568596852101682           0.12724732413735704          0.02563793999189734          1.0000   
         C         C         1.0       0.1829926372126177  0.10460444155065884           0.01951613405450736          1.0000   
         H         H         1.0       0.18563530660791086           0.06219651452864361          0.17352604029016605          1.0000   
         H         H         1.0       0.12101578136136744           0.0885084507926923 0.1509409216553424 1.0000   
         H         H         1.0       0.10342137242527431           0.04921346312314534          0.15568121223920886          1.0000   
         H         H         1.0       0.16804801949648834           0.023417541987972967         0.17556019379492332          1.0000   
         H         H         1.0       0.19910611596441039           0.13294653655769184          0.14226092297092957          1.0000   
         H         H         1.0       0.2314644460739769  0.1477488247261635  0.1660443972672191 1.0000   
         H         H         1.0       0.21377523402996462           0.10735324085474994          0.23531263408973457          1.0000   
         H         H         1.0       0.17997685396958196           0.09308468052555775          0.2123996015427539 1.0000   
         H         H         1.0       0.14277720504132677           0.12137355992644921          0.1104903892819689 1.0000   
         H         H         1.0       0.15014539679418895           0.11171946458250426          0.06792106175108556          1.0000   
         H         H         1.0       0.2110652441689285  0.07601928589425366           0.09077461454935334          1.0000   
         H         H         1.0       0.20303221928018028           0.08196604146970676          0.1336357710009198 1.0000   
         H         H         1.0       0.14183458352073638           0.02086265112188923          0.6043790087120658 1.0000   
         H         H         1.0       0.1425863710463974  0.08395270527721954           0.027809639541882095         1.0000   
         H         H         1.0       0.19381620159506224           0.03822774946736329          0.05456662430048298          1.0000   
         H         H         1.0       0.16727538328051297           0.005233958994941279         0.05024570706983611          1.0000   
         H         H         1.0       0.22699756664836154           0.11013492213484022          0.06101959067637325          1.0000   
         H         H         1.0       0.26703697227662837           0.1012589489490523 0.05596082825673876          1.0000   
         H         H         1.0       0.2499182554345712  0.04428938122420667           0.002708382326148673         1.0000   
         H         H         1.0       0.20924769529293755           0.05363292131512498          0.008491991523154276         1.0000   
         H         H         1.0       0.18278105350216792           0.041800265349964505         0.5238999046559428 1.0000   
         H         H         1.0       0.16987982632807874           0.06087104380153785          0.4875820770522856 1.0000   
         H         H         1.0       0.18381644600855282           0.16191322000485814          0.013105610315946594         1.0000   
         H         H         1.0       0.18817550572951883           0.13311427267514853          0.04656141110157774          1.0000   
         C         C         1.0       0.15007984527118554           0.07190523900645313          0.29184566496681824          1.0000   
         C         C         1.0       0.15467540919572034           0.08693747075481476          0.313663574697493  1.0000   
         C         C         1.0       0.16502453632752082           0.07904136668342542          0.33664480772753896          1.0000   
         C         C         1.0       0.17097753228954057           0.05542422132118059          0.3387700733150979 1.0000   
         C         C         1.0       0.16543596311848724           0.040624934228071084         0.31691390129364355          1.0000   
         C         C         1.0       0.15627733400396118           0.04977593091913791          0.29313284823018776          1.0000   
         H         H         1.0       0.14666023153801885           0.10399758841633987          0.3126202176619154 1.0000   
         H         H         1.0       0.16919727824807057           0.09069223125100279          0.3536640855340367 1.0000   
         H         H         1.0       0.17164509696068825           0.02231498683990574          0.31796686655866746          1.0000   
         H         H         1.0       0.1524007052707639  0.03789937176500481           0.27590549882231935          1.0000   
         C         C         1.0       0.1598504671385969  0.012836562503747428         0.37297734047947434          1.0000   
         C         C         1.0       0.18148874446564023           0.023364586755635353         0.37547266435513565          1.0000   
         C         C         1.0       0.19686628803478184           0.012380743668947813         0.3922988992646988 1.0000   
         C         C         1.0       0.19204183545417303           0.9912463177562989 0.4024634885721286 1.0000   
         C         C         1.0       0.1704041091072345  0.98158999128398    0.3999338208724514 1.0000   
         C         C         1.0       0.15396488896580618           0.9929291578802559 0.38525539924906915          1.0000   
         C         C         1.0       0.1884745126077045  0.04691329082975019           0.3618459779799975 1.0000   
         C         C         1.0       0.1869861281529057  0.062085531790975056         0.3898775119591341 1.0000   
         C         C         1.0       0.20595968069803056           0.07313033820404846          0.40061254958112447          1.0000   
         C         C         1.0       0.20392187713491478           0.08721165569372169          0.4230010442126223 1.0000   
         C         C         1.0       0.18344724818928174           0.09299994432038508          0.4341563226514382 1.0000   
         C         C         1.0       0.16395949577840116           0.08198343750353307          0.42369944994301867          1.0000   
         C         C         1.0       0.1660002956172722  0.06693949800946324           0.40267649384343934          1.0000   
         C         C         1.0       0.2209668344501536  0.025306804461184162         0.33599956248808405          1.0000   
         C         C         1.0       0.23924627619951308           0.024148396985810505         0.31809665886517   1.0000   
         C         C         1.0       0.24313275863054495           0.04422662575086189          0.30216196213703117          1.0000   
         C         C         1.0       0.23485657256275885           0.0647756872435449 0.3118930507901889 1.0000   
         C         C         1.0       0.2206369085570851  0.0656930297706712  0.33330571797205877          1.0000   
         C         C         1.0       0.2121652063897458  0.04582162900225084           0.34471680627519263          1.0000   
         C         C         1.0       0.25247583108453403           0.039679481071475564         0.27050841457734465          1.0000   
         C         C         1.0       0.18810499288657173           0.00807328881750613          0.24031420715639426          1.0000   
         C         C         1.0       0.1905201048252054  0.031209588835434454         0.24217172754576188          1.0000   
         C         C         1.0       0.20983771462591377           0.042160282233211  0.2524712985311572 1.0000   
         C         C         1.0       0.2286888240276205  0.029224038882623926         0.2573469162927318 1.0000   
         C         C         1.0       0.22695385540826918           0.005181308998890577         0.2528112740632097 1.0000   
         C         C         1.0       0.20662510304731097           0.9942475184795339 0.24532319077089515          1.0000   
         C         C         1.0       0.2745318023217298  0.024192688303096288         0.26797758907245756          1.0000   
         C         C         1.0       0.29105248809464995           0.021741366672867857         0.2879090275493169 1.0000   
         C         C         1.0       0.31108888804605667           0.011547908529606188         0.28248516443386446          1.0000   
         C         C         1.0       0.31587066349714105           0.00301027241140428          0.256953507534465  1.0000   
         C         C         1.0       0.2991287813778982  0.003132483853592216         0.2373487914697534 1.0000   
         C         C         1.0       0.2784648037678736  0.013290213038482879         0.2429497821791011 1.0000   
         C         C         1.0       0.2556762342157367  0.06342037571422511           0.2285768867073897 1.0000   
         C         C         1.0       0.2585119227484725  0.08328144954885788           0.21473252374540766          1.0000   
         C         C         1.0       0.26720514195503764           0.10207316262967377          0.22778226210991495          1.0000   
         C         C         1.0       0.2735707355333385  0.10206253377378874           0.2549932372109481 1.0000   
         C         C         1.0       0.27213630082775325           0.08082385798949217          0.26776106425130464          1.0000   
         C         C         1.0       0.26026806962016236           0.06255068346216819          0.2555894009764038 1.0000   
         H         H         1.0       0.14645638956273088           0.02142991064165778          0.3620717841307958 1.0000   
         H         H         1.0       0.21363909382342863           0.01957246286669334          0.39719911826222515          1.0000   
         H         H         1.0       0.20487263993936333           0.9826322200298474 0.41338346187134306          1.0000   
         H         H         1.0       0.1361699371800529  0.9872167039958911  0.38223072471889336          1.0000   
         H         H         1.0       0.22269248725702595           0.07073293110504508          0.3922574319505712 1.0000   
         H         H         1.0       0.21657663185809262           0.0985352676851663 0.43057420869138424          1.0000   
         H         H         1.0       0.14858140933202793           0.08577757329904105          0.4355221260794214 1.0000   
         H         H         1.0       0.15031167978360852           0.06001124645150931          0.39508441311609804          1.0000   
         H         H         1.0       0.21278875685494258           0.008794925536981024         0.34126056752094247          1.0000   
         H         H         1.0       0.24370517769288935           0.00668716318623952          0.30926188429359364          1.0000   
         H         H         1.0       0.2379671412359977  0.08117604217241267           0.3012011589865372 1.0000   
         H         H         1.0       0.21452207990046124           0.08214148945744078          0.3393294280873509 1.0000   
         H         H         1.0       0.17423634092384438           0.04067822704043089          0.23843699849811226          1.0000   
         H         H         1.0       0.20801131565019065           0.06030303940826198          0.2571899122912559 1.0000   
         H         H         1.0       0.24044606236492058           0.993664587641079  0.2580924450525076 1.0000   
         H         H         1.0       0.2050168579049465  0.9757259688368614  0.24387672345130595          1.0000   
         H         H         1.0       0.2879978564716102  0.030876126918903735         0.30687952010730507          1.0000   
         H         H         1.0       0.3240980928527105  0.009520613660607413         0.29722082849971354          1.0000   
         H         H         1.0       0.3018004517304351  0.9942442649881092  0.21799639397551704          1.0000   
         H         H         1.0       0.26839874990158596           0.015558310318386281         0.2251961360227715 1.0000   
         H         H         1.0       0.24844273859784485           0.04817157929249935          0.21762266391066248          1.0000   
         H         H         1.0       0.254828566575274   0.0843477648428654  0.19214358878915033          1.0000   
         H         H         1.0       0.2805084625348153  0.11741115702188072           0.2650142985826877 1.0000   
         H         H         1.0       0.2758388138821974  0.0805525444169594  0.2880747829880034 1.0000   
         C         C         1.0       0.007240213292218911          0.969943313704905  0.3090089777656927 1.0000   
         C         C         1.0       0.9981036343756289  0.9846216950758555  0.2898138972165107 1.0000   
         C         C         1.0       0.012416665140426497          0.9952716174737006 0.2709227040131775 1.0000   
         C         C         1.0       0.03610903282919842           0.9914061483908623 0.2707592349125657 1.0000   
         C         C         1.0       0.04405500741432511           0.9769055192136871 0.2909957556007651 1.0000   
         C         C         1.0       0.030217422114648725          0.9670261711498566 0.3102920642923472 1.0000   
         H         H         1.0       0.9793910020826088  0.9870440229729825  0.28640595264182295          1.0000   
         H         H         1.0       0.005280710246713616          0.007252716447194496         0.255259289115719  1.0000   
         H         H         1.0       0.06188241879549793           0.9697734279821625 0.2898782869618013 1.0000   
         H         H         1.0       0.03681339497009306           0.9532580764673788 0.32362782343782986          1.0000   
         C         C         1.0       0.09022218752305726           0.004815232727151342         0.271247786054085  1.0000   
         C         C         1.0       0.07960952607840904           0.9967100066848348 0.24830992476692335          1.0000   
         C         C         1.0       0.09232697298928559           0.9850300338889104 0.22893957565748446          1.0000   
         C         C         1.0       0.11450873463349774           0.9806172810785513 0.23344926650082945          1.0000   
         C         C         1.0       0.12567249773006062           0.989332659824439  0.25558864117934577          1.0000   
         C         C         1.0       0.11357739456964185           0.000989068696645834         0.27535046167607885          1.0000   
         C         C         1.0       0.05197321917443814           0.9989940698082943 0.24579475532359882          1.0000   
         C         C         1.0       0.05058207144905347           0.02584828443224363          0.23868203822379372          1.0000   
         C         C         1.0       0.05995401581660409           0.034872684133407716         0.2148046499245171 1.0000   
         C         C         1.0       0.06364741966100085           0.05831071967863566          0.21272806616430803          1.0000   
         C         C         1.0       0.056310549872292226          0.07302745764597596          0.2328427448196412 1.0000   
         C         C         1.0       0.04589855290926237           0.06439190121470961          0.2560357338923168 1.0000   
         C         C         1.0       0.043695510007148775          0.0411977469259206 0.2597119053882263 1.0000   
         C         C         1.0       0.04696318544458355           0.9594719101321124 0.2253812399324304 1.0000   
         C         C         1.0       0.043816620922840104          0.9456237689305723 0.20343239124346882          1.0000   
         C         C         1.0       0.032413493082526834          0.953202206620088  0.18048474289728156          1.0000   
         C         C         1.0       0.02244641210610454           0.9747449746800625 0.1814963417014304 1.0000   
         C         C         1.0       0.02780563880935838           0.9893831861074475 0.20343741300019322          1.0000   
         C         C         1.0       0.04176502323214493           0.9823432899916754 0.22456457559075294          1.0000   
         C         C         1.0       0.03625149724143694           0.9398753924353409 0.15229225553506368          1.0000   
         C         C         1.0       0.09632127775324    0.9824599707476105  0.140733797203088  1.0000   
         C         C         1.0       0.09817972988690477           0.9618831952899157 0.15346769312329758          1.0000   
         C         C         1.0       0.08068497548773622           0.9469876997739879 0.15312680111649157          1.0000   
         C         C         1.0       0.05946678172910433           0.9522729494178171 0.14272888856016622          1.0000   
         C         C         1.0       0.058295188002854055          0.9735772716278907 0.1293066409230017 1.0000   
         C         C         1.0       0.07573989849007262           0.9890317381330848 0.12954156035057526          1.0000   
         C         C         1.0       0.015386132475656343          0.9410615778102174 0.1310027438015016 1.0000   
         C         C         1.0       0.9927263316017785  0.9410733335096159  0.14018585997507138          1.0000   
         C         C         1.0       0.9743149285024505  0.9373056780570682  0.12322488107294793          1.0000   
         C         C         1.0       0.9790918593790449  0.9342404298021875  0.09509220553363708          1.0000   
         C         C         1.0       0.0007257760890062581         0.9326778765911887 0.08568252901566398          1.0000   
         C         C         1.0       0.019118531458136575          0.9370915557170155 0.10410072416813367          1.0000   
         C         C         1.0       0.05155253850165941           0.8993184838613789 0.14186905088400728          1.0000   
         C         C         1.0       0.05231311154502051           0.8759360034645582 0.14681769761081837          1.0000   
         C         C         1.0       0.037230680475916364          0.865300606251037  0.16350834016326685          1.0000   
         C         C         1.0       0.019715410684884027          0.8780286043697565 0.17437260058653833          1.0000   
         C         C         1.0       0.020015593602573434          0.9018124552690262 0.1721905711294416 1.0000   
         C         C         1.0       0.03585063165212498           0.9128000856966979 0.15626075257001726          1.0000   
         H         H         1.0       0.08056680685174278           0.015422547621106508         0.28472708556219384          1.0000   
         H         H         1.0       0.08687483208912415           0.9761762672208083 0.21088957954608212          1.0000   
         H         H         1.0       0.12285012582927583           0.9704819991412436 0.21668128553426147          1.0000   
         H         H         1.0       0.1219617165278283  0.005360332047487315         0.2946345292917094 1.0000   
         H         H         1.0       0.06774460103241178           0.02154690967473849          0.20114925148290613          1.0000   
         H         H         1.0       0.07151187983194407           0.06326939163814616          0.19405862278499678          1.0000   
         H         H         1.0       0.04087940837877024           0.076558802205833  0.27126907470727946          1.0000   
         H         H         1.0       0.03668318773064905           0.036268210811059465         0.27898221475883345          1.0000   
         H         H         1.0       0.057998935047586436          0.9516686286458448 0.24046651914746234          1.0000   
         H         H         1.0       0.05066634523146802           0.9281434396124405 0.20451756676056534          1.0000   
         H         H         1.0       0.013495241259715574          0.9820064255794818 0.16593464416895654          1.0000   
         H         H         1.0       0.020821425011403605          0.005896071695204119         0.19976672282183733          1.0000   
         H         H         1.0       0.11438905794165405           0.9572030814821524 0.16071841921355562          1.0000   
         H         H         1.0       0.08291352258651244           0.932424476999072  0.16508233658507387          1.0000   
         H         H         1.0       0.04231308881435103           0.9809008707802305 0.1218556002898405 1.0000   
         H         H         1.0       0.07524931631192201           0.005243730140125136         0.12016403610219348          1.0000   
         H         H         1.0       0.9900370096006716  0.9411608211386869  0.16262048577168248          1.0000   
         H         H         1.0       0.957142513309957   0.9397485005783288  0.13094887712430858          1.0000   
         H         H         1.0       0.0037319871262051496         0.9307111200612681 0.06374047306995939          1.0000   
         H         H         1.0       0.03639173886527879           0.9337227706546404 0.09635134812882648          1.0000   
         H         H         1.0       0.06371233877852779           0.9078916366226822 0.12829806344942815          1.0000   
         H         H         1.0       0.06493066848657474           0.8647287720002634 0.1381564025311252 1.0000   
         H         H         1.0       0.00813624906151067           0.8702334314696685 0.18903192977051442          1.0000   
         H         H         1.0       0.005081150886471875          0.9115156555488995 0.1794807778633764 1.0000   
         C         C         1.0       0.005457856322179433          0.9641839269102169 0.5477601238394484 1.0000   
         C         C         1.0       0.010385081975828658          0.981675148865987  0.5303478257413399 1.0000   
         C         C         1.0       0.03306740143602682           0.9863787755286868 0.5228440188509719 1.0000   
         C         C         1.0       0.050722135759589504          0.9723239678432153 0.5316492027164216 1.0000   
         C         C         1.0       0.04440073941961464           0.9529665130559546 0.5463620071469817 1.0000   
         C         C         1.0       0.02185595566641174           0.9489232406718879 0.5537578815065208 1.0000   
         H         H         1.0       0.9968994870771113  0.9919100683208043  0.5223348269474423 1.0000   
         H         H         1.0       0.035849902628603214          0.0008353978169941545        0.5098713216561916 1.0000   
         H         H         1.0       0.05804232139702124           0.9438466999184586 0.5537659654541609 1.0000   
         H         H         1.0       0.9731757491614038  0.9267413878461541  0.022001061757980445         1.0000   
         C         C         1.0       0.050664588368166404          0.9792079266690985 0.038662269789727866         1.0000   
         C         C         1.0       0.09735576430653067           0.9692571970863428 0.5415542230195829 1.0000   
         C         C         1.0       0.1177958101431089  0.9610636883484329  0.5319361925483761 1.0000   
         C         C         1.0       0.13702990493986683           0.9579391980309674 0.5473749959374622 1.0000   
         C         C         1.0       0.07988727748700104           0.006114867194745743         0.0512092723487887 1.0000   
         C         C         1.0       0.0691438912963139  0.9851403698102098  0.05449342637881105          1.0000   
         C         C         1.0       0.0768362269807051  0.9753290276332863  0.5208430919076318 1.0000   
         C         C         1.0       0.08598583585772031           0.0012287475451207008        0.5175403613902715 1.0000   
         C         C         1.0       0.0995230866907673  0.008410764545485394         0.49605422601709265          1.0000   
         C         C         1.0       0.10823166935248096           0.029882840931747978         0.4937194154436054 1.0000   
         C         C         1.0       0.1031542183556371  0.045366375565468076         0.5140811761904156 1.0000   
         C         C         1.0       0.08863850780392557           0.039347500790189116         0.5346431449624116 1.0000   
         C         C         1.0       0.07967445160513908           0.0178676927549124 0.5363104619703375 1.0000   
         C         C         1.0       0.07708797519254476           0.9356806571871895 0.4960080288015611 1.0000   
         C         C         1.0       0.07381618535007832           0.9202178138173416 0.47532606828465435          1.0000   
         C         C         1.0       0.06516384480405031           0.9283542372301291 0.45088727767863485          1.0000   
         C         C         1.0       0.06230498546034612           0.9520479251085794 0.44855995152170014          1.0000   
         C         C         1.0       0.06611231305675803           0.9671067204105315 0.47019872604092483          1.0000   
         C         C         1.0       0.07408225313036952           0.9592420633114286 0.49505220949809275          1.0000   
         C         C         1.0       0.06251088595353105           0.9139410769642601 0.42376482687870054          1.0000   
         C         C         1.0       0.13166156317127833           0.9338866225321164 0.3969165296369149 1.0000   
         C         C         1.0       0.12835614900700348           0.915100340247373  0.4135702639972891 1.0000   
         C         C         1.0       0.1065719490359737  0.9084826359658673  0.42265865217576926          1.0000   
         C         C         1.0       0.08733755586606391           0.9197300538882022 0.41181128390349936          1.0000   
         C         C         1.0       0.09046646382149089           0.9359354517909763 0.39236446407279363          1.0000   
         C         C         1.0       0.11261441255237056           0.9434461465320608 0.38418376183630965          1.0000   
         C         C         1.0       0.040778542068767624          0.9189550396247159 0.4042423088993788 1.0000   
         C         C         1.0       0.023225266275684886          0.9325184221316614 0.41302885717816407          1.0000   
         C         C         1.0       0.007590393926888206          0.9421417618959465 0.3950019331160621 1.0000   
         C         C         1.0       0.009080345229180331          0.9375458916678805 0.36779612466804745          1.0000   
         C         C         1.0       0.024806236301305743          0.9215088445875804 0.3587911114533807 1.0000   
         C         C         1.0       0.04059616191619519           0.9128080329517849 0.37747098233777615          1.0000   
         C         C         1.0       0.06952062039645691           0.8716576165306511 0.4102409080285214 1.0000   
         C         C         1.0       0.06582204282811087           0.8485644296461908 0.4150890578133451 1.0000   
         C         C         1.0       0.05370401584169103           0.8412120762152938 0.4380924953187362 1.0000   
         C         C         1.0       0.044133956092837094          0.8565023785592588 0.4548563373562915 1.0000   
         C         C         1.0       0.04719178257924316           0.8795644612311413 0.4503694695615    1.0000   
         C         C         1.0       0.059708486085630307          0.8869907353185034 0.42852895787004286          1.0000   
         H         H         1.0       0.044702071478581074          0.9605926820192245 0.03877956870369825          1.0000   
         H         H         1.0       0.1205481129586741  0.9570978461111643  0.510615150250827  1.0000   
         H         H         1.0       0.15260441400443206           0.9516014125933092 0.5378631770230821 1.0000   
         H         H         1.0       0.07631682001838785           0.9719296053152563 0.06729178917559582          1.0000   
         H         H         1.0       0.10221549587708652           0.9957906088257914 0.4790668288835341 1.0000   
         H         H         1.0       0.11984913100832059           0.034548278556286505         0.47689318622648913          1.0000   
         H         H         1.0       0.9785739503712066  0.02295465688188525           0.9362541713900874 1.0000   
         H         H         1.0       0.9858111049192685  0.9942475365210884  0.968020792462435  1.0000   
         H         H         1.0       0.08269492630341736           0.9281726794806998 0.5152291084195564 1.0000   
         H         H         1.0       0.07691139775190606           0.9019902055686863 0.47723652159260366          1.0000   
         H         H         1.0       0.058290154728254606          0.9605383866915448 0.4295254049341982 1.0000   
         H         H         1.0       0.06316414800862624           0.984605281691975  0.46699918526700196          1.0000   
         H         H         1.0       0.14445790003265574           0.9063505527689709 0.4208620977414121 1.0000   
         H         H         1.0       0.10398579268081995           0.8961894702395485 0.43839576657157203          1.0000   
         H         H         1.0       0.0746914866543135  0.9428543762608658  0.3819863865759913 1.0000   
         H         H         1.0       0.11515651877388469           0.9558851356628154 0.36860562274527214          1.0000   
         H         H         1.0       0.021809813214670237          0.9370023340050745 0.43429969234832677          1.0000   
         H         H         1.0       0.993897791525676   0.9524428899077269  0.4014697309533736 1.0000   
         H         H         1.0       0.025194275715187057          0.9164109301811683 0.3380040503565094 1.0000   
         H         H         1.0       0.05252520487522577           0.8994146119129404 0.37143970391829717          1.0000   
         H         H         1.0       0.08119477450668207           0.8765857585520956 0.3938589394236343 1.0000   
         H         H         1.0       0.07677473971364732           0.8369425719853794 0.40408462570859266          1.0000   
         H         H         1.0       0.035641838249552464          0.8504235701676318 0.47425110681477184          1.0000   
         H         H         1.0       0.037982273132231896          0.8918334687426289 0.46384103560212253          1.0000   
         C         C         1.0       0.06940154163816274           0.17176050815036553          0.15570999920809223          1.0000   
         C         C         1.0       0.08280568819970766           0.18539835973292693          0.14075939577069604          1.0000   
         C         C         1.0       0.07797280686209791           0.1888320410181299 0.11418512037353641          1.0000   
         C         C         1.0       0.059192341071294126          0.1792268091857207 0.10182091833256927          1.0000   
         C         C         1.0       0.04609859288692996           0.1649121173262576 0.11773916636612992          1.0000   
         C         C         1.0       0.050660765007214746          0.15994537277984455          0.14392652283423624          1.0000   
         H         H         1.0       0.09531206668266186           0.196555795593441  0.1502162140401215 1.0000   
         H         H         1.0       0.08742944192559757           0.20114794281817483          0.10424868958276125          1.0000   
         H         H         1.0       0.031755040467349   0.15560446013445692           0.10930251953021335          1.0000   
         H         H         1.0       0.03788081755439033           0.15061019580436608          0.1566587105852512 1.0000   
         C         C         1.0       0.040338819518397795          0.14616990944250785          0.056709763455490184         1.0000   
         C         C         1.0       0.03795883436088898           0.16932981522068286          0.054331805808408136         1.0000   
         C         C         1.0       0.026199594821863403          0.17724469800362055          0.031688359953416345         1.0000   
         C         C         1.0       0.018161835005699567          0.1632620015656745 0.012105406627177295         1.0000   
         C         C         1.0       0.02159564099594058           0.1404511649706662 0.013677361858425387         1.0000   
         C         C         1.0       0.03263388028709402           0.13122471426184315          0.035890788656540495         1.0000   
         C         C         1.0       0.050157370339037895          0.1877088500016847 0.07351656178513653          1.0000   
         C         C         1.0       0.0713262605161488  0.1912252868105213  0.052945910947306274         1.0000   
         C         C         1.0       0.0706091044095559  0.2095272422016995  0.0349999042544864 1.0000   
         C         C         1.0       0.14249320546536948           0.20296515836162846          0.5211288293761661 1.0000   
         C         C         1.0       0.1652107272470333  0.19648166398880657           0.5215676648933433 1.0000   
         C         C         1.0       0.17482360123295754           0.18786464733475236          0.5443115539753842 1.0000   
         C         C         1.0       0.16110606173064346           0.18319019777189502          0.5661926432419304 1.0000   
         C         C         1.0       0.012344546402808021          0.2053256297084298 0.08858458528925296          1.0000   
         C         C         1.0       0.9992094282627347  0.22091384936634773           0.10142010885301389          1.0000   
         C         C         1.0       0.008415482783507455          0.2410122340173461 0.11080101367996795          1.0000   
         C         C         1.0       0.030419319037553457          0.24630714579845392          0.10282489856269247          1.0000   
         C         C         1.0       0.04388467495873827           0.2297430931854483 0.0894762645218955 1.0000   
         C         C         1.0       0.0346145827583848  0.20898919285657006           0.08279367039003781          1.0000   
         C         C         1.0       0.9984846560254741  0.25401719311246496           0.1368265880405453 1.0000   
         C         C         1.0       0.9388243512567709  0.21037859868969525           0.15500277862945114          1.0000   
         C         C         1.0       0.9562777538293935  0.2124154721223837  0.1736495277758608 1.0000   
         C         C         1.0       0.9736484965277137  0.22868079684744455           0.1699295337465799 1.0000   
         C         C         1.0       0.975452658228053   0.24191327985025513           0.14702661442883838          1.0000   
         C         C         1.0       0.9565145548418803  0.24177541969385827           0.1296895271185598 1.0000   
         C         C         1.0       0.9394357866471518  0.2257546929924909  0.1327121175178714 1.0000   
         C         C         1.0       0.9922629088352434  0.28039689862823736           0.1320784480700618 1.0000   
         C         C         1.0       0.9963164393110626  0.2912474632356333  0.1071036221091887 1.0000   
         C         C         1.0       0.9968284217327433  0.31451243557238867           0.10554501273182415          1.0000   
         C         C         1.0       0.9887386485164094  0.32857521213926316           0.12634484749125993          1.0000   
         C         C         1.0       0.981380874665299   0.3183311918784467  0.14958988648762256          1.0000   
         C         C         1.0       0.9829314464962418  0.2943711697252537  0.15247824267099236          1.0000   
         C         C         1.0       0.028775270149180795          0.2719415564349803 0.17231287406456652          1.0000   
         C         C         1.0       0.04622736530105365           0.26953076101098045          0.19113357233535785          1.0000   
         C         C         1.0       0.0546373787663098  0.24796922187795736           0.1973423142724119 1.0000   
         C         C         1.0       0.04613628165082017           0.229212411469597  0.18237032423982055          1.0000   
         C         C         1.0       0.027834760115675646          0.23097169810739585          0.16588405356832633          1.0000   
         C         C         1.0       0.01823309864978939           0.2530014807377417 0.1596343051566989 1.0000   
         H         H         1.0       0.05004026342289566           0.14032340448508376          0.07458239873581622          1.0000   
         H         H         1.0       0.023531395118471687          0.1951462001626796 0.028225134850913935         1.0000   
         H         H         1.0       0.0733751607411377  0.12338645515176672           0.5627964515441527 1.0000   
         H         H         1.0       0.03592814870958971           0.11253096280592495          0.03791235331074794          1.0000   
         H         H         1.0       0.05784906733646039           0.22198101186737793          0.03859506789097211          1.0000   
         H         H         1.0       0.1345261659059033  0.20855831560069618           0.5031148615255443 1.0000   
         H         H         1.0       0.1926810854092984  0.18208268940432146           0.5470955603698378 1.0000   
         H         H         1.0       0.09063014404231688           0.16162952178521028          0.06410612362023213          1.0000   
         H         H         1.0       0.0062172532073114795         0.1876750959279683 0.08874754960454143          1.0000   
         H         H         1.0       0.9832039930716289  0.21351611938693213           0.10906947070750636          1.0000   
         H         H         1.0       0.03724947698494562           0.2623100613660709 0.10987849107217887          1.0000   
         H         H         1.0       0.06290259504917439           0.23331893376462995          0.08670718859416435          1.0000   
         H         H         1.0       0.9585335247912093  0.19949291281534837           0.18882888674934362          1.0000   
         H         H         1.0       0.9872385618505212  0.2296517409622464  0.18569421635274383          1.0000   
         H         H         1.0       0.9560169496846548  0.25258284812356546           0.11188435202370468          1.0000   
         H         H         1.0       0.9245964434157148  0.22541567395681059           0.11863683866855021          1.0000   
         H         H         1.0       0.004125032670887041          0.2815835807949948 0.09120336596651567          1.0000   
         H         H         1.0       0.004802737507866528          0.32334406402414007          0.08836684383549989          1.0000   
         H         H         1.0       0.9739045922228772  0.3302053022569717  0.16351241072695497          1.0000   
         H         H         1.0       0.9789493202835324  0.2878636778172941  0.17228135447462634          1.0000   
         H         H         1.0       0.02394785096910312           0.2885743362144532 0.1680244650972989 1.0000   
         H         H         1.0       0.05087577999099151           0.2853085430310804 0.20129482789703393          1.0000   
         H         H         1.0       0.05452334021546517           0.21102933554312303          0.18454965834485157          1.0000   
         H         H         1.0       0.022801091076259716          0.2149746993948258 0.1569632830640761 1.0000   
         C         C         1.0       0.10051149973086768           0.10035101026446142          0.28630943666056147          1.0000   
         C         C         1.0       0.10865388984320272           0.12224721334031953          0.2804871254603552 1.0000   
         C         C         1.0       0.09788724664007369           0.1419551407841959 0.2899974696839419 1.0000   
         C         C         1.0       0.07787046899072557           0.1411030127209087 0.3065221104419417 1.0000   
         C         C         1.0       0.06997576356708983           0.11931567738357238          0.3113901439348406 1.0000   
         C         C         1.0       0.08109915491589458           0.0999188561618164 0.30026077308005783          1.0000   
         H         H         1.0       0.1230533205249859  0.1251227949753773  0.2674225615838301 1.0000   
         H         H         1.0       0.10544554588395659           0.1595430374190744 0.28959364474003935          1.0000   
         H         H         1.0       0.05411009734653712           0.1165009683660544 0.323444905231661  1.0000   
         H         H         1.0       0.07068487912274712           0.0850642219340689 0.3017266842918878 1.0000   
         C         C         1.0       0.025645566051711418          0.15315565435166958          0.30082605301309573          1.0000   
         C         C         1.0       0.039072388874636925          0.16238545935952317          0.32151123088504724          1.0000   
         C         C         1.0       0.028916075572162914          0.17333927731933998          0.34313855426746565          1.0000   
         C         C         1.0       0.005834356043868283          0.1748701207709073 0.34393990401277263          1.0000   
         C         C         1.0       0.9916316245306172  0.1676960963376795  0.32217398038992157          1.0000   
         C         C         1.0       0.0024464022077035352         0.15807333661735332          0.30029009706414206          1.0000   
         C         C         1.0       0.06603494810468806           0.16385178560961128          0.3180103726395008 1.0000   
         C         C         1.0       0.06703641264527911           0.1850648887943183 0.2978895977612607 1.0000   
         C         C         1.0       0.06836611891329888           0.2072551856495674 0.3078967774796654 1.0000   
         C         C         1.0       0.06600334862069221           0.22618325546855939          0.292084536198579  1.0000   
         C         C         1.0       0.062268482788988236          0.2231865816963036 0.2647127684978853 1.0000   
         C         C         1.0       0.06023848606998144           0.20119247190110826          0.2544549140432592 1.0000   
         C         C         1.0       0.06422129610698722           0.18231049133230456          0.27003796618932463          1.0000   
         C         C         1.0       0.07394426611156628           0.15223552034698798          0.36751851906825084          1.0000   
         C         C         1.0       0.0808698278965614  0.15751834471585693           0.3936768683977371 1.0000   
         C         C         1.0       0.09230361965438016           0.17839719907688678          0.39678660313635306          1.0000   
         C         C         1.0       0.10367314252836532           0.18702647548853332          0.37488892932582873          1.0000   
         C         C         1.0       0.09828130112390704           0.17990753728109155          0.3494481256131299 1.0000   
         C         C         1.0       0.08061967473266042           0.16459452127892343          0.34496408217890195          1.0000   
         C         C         1.0       0.09204585648998499           0.1918420315005208 0.4252933771964921 1.0000   
         C         C         1.0       0.028612719033882295          0.18928938023949463          0.4726136344207273 1.0000   
         C         C         1.0       0.04888167897044848           0.1845536934257947 0.4858253281113545 1.0000   
         C         C         1.0       0.0695581081926182  0.18589049690486847           0.47156276075955195          1.0000   
         C         C         1.0       0.06974051095768075           0.18757136058349239          0.4436113666693035 1.0000   
         C         C         1.0       0.0484583421275091  0.18997828475677334           0.43182320896411625          1.0000   
         C         C         1.0       0.02873417143589041           0.19215859192919826          0.4456699144235504 1.0000   
         C         C         1.0       0.09004476943624362           0.2192199663520937 0.422916677259314  1.0000   
         C         C         1.0       0.0772783144892859  0.2312198962255611  0.404423231047545  1.0000   
         C         C         1.0       0.07618536108133322           0.2552549805474767 0.40549005949940103          1.0000   
         C         C         1.0       0.08590212041847378           0.26714030389310467          0.4266110744641463 1.0000   
         C         C         1.0       0.09699961866187512           0.2563236095604754 0.4466334579312754 1.0000   
         C         C         1.0       0.09866946963247303           0.2319662533300186 0.4455852775720295 1.0000   
         C         C         1.0       0.1365045276172938  0.1940333166212208  0.4261599082195226 1.0000   
         C         C         1.0       0.15777146864476177           0.18941607791237755          0.43709529332099   1.0000   
         C         C         1.0       0.15893432101126923           0.17668623488507154          0.45977695502783167          1.0000   
         C         C         1.0       0.14006531252581705           0.16335510790507418          0.4676713683811027 1.0000   
         C         C         1.0       0.11971978623248077           0.16599523343853947          0.4547472443860327 1.0000   
         C         C         1.0       0.11654801586617035           0.18290039566299585          0.43582621750593237          1.0000   
         H         H         1.0       0.0337351879981731  0.14511647410955014           0.2831095185193157 1.0000   
         H         H         1.0       0.039269212171870294          0.18127954020792142          0.35908793355218555          1.0000   
         H         H         1.0       0.995948047409924   0.18235219907498515           0.3598207299374945 1.0000   
         H         H         1.0       0.9933722272600626  0.15188287149258525           0.28207337588593223          1.0000   
         H         H         1.0       0.06745658036621793           0.21133078705369734          0.3289031062709322 1.0000   
         H         H         1.0       0.0696416437454209  0.24305167859716637           0.30192832097156497          1.0000   
         H         H         1.0       0.05520998202369811           0.1966453058628443 0.2335540087191234 1.0000   
         H         H         1.0       0.06286405920793096           0.16556152506377758          0.260531835719398  1.0000   
         H         H         1.0       0.06044974971361922           0.139833515637071  0.3668532082450981 1.0000   
         H         H         1.0       0.07195681694117717           0.1479291393291936 0.40923224348074033          1.0000   
         H         H         1.0       0.11340567402941054           0.2025946858218451 0.37651411281144576          1.0000   
         H         H         1.0       0.10526733925835648           0.18971651976824738          0.33153976934466195          1.0000   
         H         H         1.0       0.04847133689369887           0.18133884345544574          0.5073889471163048 1.0000   
         H         H         1.0       0.0857053263783476  0.18455764706929367           0.4832278574543422 1.0000   
         H         H         1.0       0.047734525106213344          0.19433399568881213          0.41085989666079553          1.0000   
         H         H         1.0       0.013569456022813231          0.19531602160147285          0.43459980447785657          1.0000   
         H         H         1.0       0.06794860364092514           0.22237884143983164          0.3887712447608755 1.0000   
         H         H         1.0       0.06665984999128538           0.26217740657347843          0.38861249664615505          1.0000   
         H         H         1.0       0.1033301532942088  0.2651541576430533  0.4644384374355664 1.0000   
         H         H         1.0       0.10795874792014515           0.22238461133755366          0.4608823722511558 1.0000   
         H         H         1.0       0.1365557337029886  0.20742951983905025           0.4102728004455689 1.0000   
         H         H         1.0       0.1729218738861358  0.1997423968961002  0.4307611201540093 1.0000   
         H         H         1.0       0.14075502262593592           0.15171378639429636          0.48518648867238234          1.0000   
         H         H         1.0       0.10517150392667743           0.15746503213375873          0.46309594338956905          1.0000   
         C         C         1.0       0.9311320123786787  0.02098637445947671           0.1619622690465563 1.0000   
         C         C         1.0       0.9495003852925915  0.02229234334641306           0.1776604508718851 1.0000   
         C         C         1.0       0.957363957178227   0.0423430236439607  0.18922793252296108          1.0000   
         C         C         1.0       0.9455806804454703  0.06258476758256791           0.18579891509243657          1.0000   
         C         C         1.0       0.9253325552522955  0.061707780313996534         0.17006797632234266          1.0000   
         C         C         1.0       0.9177420402117482  0.040835722738384185         0.15971261716134183          1.0000   
         H         H         1.0       0.9608684010289832  0.007893938126434241         0.17935741917414402          1.0000   
         H         H         1.0       0.9737883528219033  0.042613887034658626         0.2001915107381462 1.0000   
         H         H         1.0       0.9157979070381772  0.0763983802647657  0.16522642238175353          1.0000   
         H         H         1.0       0.9016486885770956  0.04057306489256631           0.14860309873832972          1.0000   
         C         C         1.0       0.9503829258222732  0.11407427390890686           0.15847576413076578          1.0000   
         C         C         1.0       0.9441636318760129  0.10884213150307268           0.18495262734131118          1.0000   
         C         C         1.0       0.9324534293158017  0.12699880442192676           0.1988638781992046 1.0000   
         C         C         1.0       0.9239083804899385  0.14576655676963615           0.1857969359008281 1.0000   
         C         C         1.0       0.9295956593104633  0.14925367514377758           0.15925839916595672          1.0000   
         C         C         1.0       0.9439743426105095  0.13368652170419554           0.1464361341018934 1.0000   
         C         C         1.0       0.9530643358952007  0.08634555697306621           0.20088668736674684          1.0000   
         C         C         1.0       0.9797096716494057  0.09212360609688877           0.20226407876608962          1.0000   
         C         C         1.0       0.9862341825587161  0.10760501111754962           0.22132223205321103          1.0000   
         C         C         1.0       0.008997266701396667          0.11344838600413024          0.22535414078696148          1.0000   
         C         C         1.0       0.025448755277630575          0.10533594879819425          0.206779139703528  1.0000   
         C         C         1.0       0.018464439455983195          0.09079602372965549          0.1853538912881444 1.0000   
         C         C         1.0       0.9958841959725556  0.08351110575394746           0.18366338860139705          1.0000   
         C         C         1.0       0.9211515087545271  0.07987503534318921           0.23679628124580462          1.0000   
         C         C         1.0       0.9132754965204325  0.07544458144206496           0.26243343329023583          1.0000   
         C         C         1.0       0.928242214260887   0.0702237030751648  0.2833934075643335 1.0000   
         C         C         1.0       0.9514205650063294  0.06678261534749848           0.2764518904850465 1.0000   
         C         C         1.0       0.958755114826857   0.06777366125372421           0.2500223853339234 1.0000   
         C         C         1.0       0.9446288033106937  0.07897717000178683           0.23084522600026972          1.0000   
         C         C         1.0       0.9205205564189666  0.06885055207244092           0.31454656482792925          1.0000   
         C         C         1.0       0.9438755612018095  0.13732318221836332           0.33902263078155875          1.0000   
         C         C         1.0       0.9232471303970812  0.1341339007044513  0.32553754808972774          1.0000   
         C         C         1.0       0.916070752537841   0.11243252578318082           0.3193546985352267 1.0000   
         C         C         1.0       0.929382860462739   0.09377871624838763           0.32519678447103484          1.0000   
         C         C         1.0       0.9515341271076246  0.09739216807194072           0.33572140484137136          1.0000   
         C         C         1.0       0.9578261569242279  0.1190213848252401  0.3450247649432475 1.0000   
         C         C         1.0       0.9303888058151268  0.05128622863710619           0.335781431050578  1.0000   
         C         C         1.0       0.9423313747870584  0.03158544269148167           0.326401654623483  1.0000   
         C         C         1.0       0.9535196392383157  0.019097062505756268         0.3457889138263818 1.0000   
         C         C         1.0       0.951856698484385   0.024979499219564664         0.37308116842097827          1.0000   
         C         C         1.0       0.938390015099222   0.041632105354350926         0.3821925575592453 1.0000   
         C         C         1.0       0.9284374122020502  0.056035232073180265         0.3638109513269885 1.0000   
         C         C         1.0       0.8787028499411339  0.07415844179414698           0.33384898830666593          1.0000   
         C         C         1.0       0.8562022934681374  0.06774083547151925           0.3357186922312862 1.0000   
         C         C         1.0       0.8481888434391314  0.04820488397784491           0.32449666696010554          1.0000   
         C         C         1.0       0.86209071404908    0.035884780994236254         0.30641099861898635          1.0000   
         C         C         1.0       0.8849523367590649  0.0422445163119221  0.3038323558224008 1.0000   
         C         C         1.0       0.893640919876936   0.06221929977453281           0.31616278092761546          1.0000   
         H         H         1.0       0.9623296694166815  0.1032080436180543  0.14854899321838508          1.0000   
         H         H         1.0       0.9268841967851433  0.12513793022403483           0.22009598078989834          1.0000   
         H         H         1.0       0.9110476754168145  0.15544682329084403           0.19703768502240931          1.0000   
         H         H         1.0       0.95265113231499    0.13779770712460837           0.12733950551676262          1.0000   
         H         H         1.0       0.9723894849552007  0.11601497714851558           0.23294220270599394          1.0000   
         H         H         1.0       0.013306106709705778          0.12588161322649333          0.2412189448248033 1.0000   
         H         H         1.0       0.031005276223935674          0.08608929323593557          0.1698786226014712 1.0000   
         H         H         1.0       0.9896900451721058  0.0720390824038003  0.1656281427281015 1.0000   
         H         H         1.0       0.908298863885567   0.08171187106383576           0.2226758669025572 1.0000   
         H         H         1.0       0.8959256645644368  0.07619095043429534           0.26693221649436766          1.0000   
         H         H         1.0       0.9640881397797574  0.06183181163956392           0.2919740377299251 1.0000   
         H         H         1.0       0.9761659331429801  0.06235351384946233           0.24463333725997022          1.0000   
         H         H         1.0       0.9120628484530744  0.14901277897191764           0.32244662260813756          1.0000   
         H         H         1.0       0.9008475459684233  0.10998801112267224           0.3063032491973955 1.0000   
         H         H         1.0       0.9649305284411265  0.08415229622369294           0.33757236593054224          1.0000   
         H         H         1.0       0.9745726285166831  0.12113427830542403           0.3522833563963054 1.0000   
         H         H         1.0       0.9425065006321631  0.023824452630993198         0.3056588432306319 1.0000   
         H         H         1.0       0.9619089257761003  0.0030710105718569918        0.3410549698124293 1.0000   
         H         H         1.0       0.9372940364791678  0.0487832361440137  0.40229604134693486          1.0000   
         H         H         1.0       0.9177638547891963  0.0693599399779721  0.3712813488839182 1.0000   
         H         H         1.0       0.8866530392909792  0.08739241088718415           0.34723471243157816          1.0000   
         H         H         1.0       0.8460884525275663  0.07741010227145476           0.3501824700750542 1.0000   
         H         H         1.0       0.8552566784953529  0.020563938292334605         0.2948342255103634 1.0000   
         H         H         1.0       0.8962940807960044  0.03109905413543812           0.29409634271189683          1.0000   
         C         C         1.0       0.9668457067951111  0.026120028070099277         0.4429458050423933 1.0000   
         C         C         1.0       0.9887211968056727  0.021391269952617312         0.4530009286066131 1.0000   
         C         C         1.0       0.9991883298582078  0.036316422673220286         0.47127046656137683          1.0000   
         C         C         1.0       0.9898176980834924  0.05755145840052416           0.47633861763726326          1.0000   
         C         C         1.0       0.9678458381935159  0.061440802830387616         0.4681186531574077 1.0000   
         C         C         1.0       0.9560805435038839  0.04520020731926599           0.45221522962003236          1.0000   
         H         H         1.0       0.9987391361997998  0.006353443410389792         0.4479016739824697 1.0000   
         H         H         1.0       0.01515507182185738           0.03318611343109157          0.48054184323503146          1.0000   
         H         H         1.0       0.9574903059213652  0.07557862234037903           0.47489958049101516          1.0000   
         H         H         1.0       0.9381134426844128  0.04842015205774001           0.44683482141532527          1.0000   
         C         C         1.0       0.9943993024597371  0.10921390311453896           0.46304409912721284          1.0000   
         C         C         1.0       0.997366666125259   0.1015145745659898  0.4889229930254792 1.0000   
         C         C         1.0       0.996254706875693   0.11752735242870159           0.5100911942071712 1.0000   
         C         C         1.0       0.9904744678426195  0.1406714370760543  0.5062543239610608 1.0000   
         C         C         1.0       0.9892018635721592  0.1491504190444856  0.48014068567742063          1.0000   
         C         C         1.0       0.9891895357985275  0.1327475216713767  0.4586265895582909 1.0000   
         C         C         1.0       0.0023878932268492914         0.07523745446416757          0.4959707828157719 1.0000   
         C         C         1.0       0.029023296613385874          0.07705364454500345          0.49427637318807516          1.0000   
         C         C         1.0       0.04087158587297779           0.08455775943029097          0.5180576089975607 1.0000   
         C         C         1.0       0.06434195880519522           0.08796839532024392          0.5166706053970973 1.0000   
         C         C         1.0       0.07664412846140567           0.08489967101970919          0.49218380543839   1.0000   
         C         C         1.0       0.06496974030863512           0.07799618536292252          0.4686177647642457 1.0000   
         C         C         1.0       0.04159796760562928           0.07395511849434218          0.4705005415019331 1.0000   
         C         C         1.0       0.9712416844902763  0.07616146371698712           0.533745527957285  1.0000   
         C         C         1.0       0.9671133674587241  0.07555978359958251           0.5605895556375187 1.0000   
         C         C         1.0       0.9776369456005144  0.06036833958984284           0.5782113686813899 1.0000   
         C         C         1.0       0.992393462893196   0.045037041302380995         0.5654760663953016 1.0000   
         C         C         1.0       0.0012464072530058434         0.04988651014434895          0.5399101705618263 1.0000   
         C         C         1.0       0.9909509422012182  0.06583571577030606           0.5242178221708761 1.0000   
         C         C         1.0       0.9199044328744963  0.07216963618854334           0.04988407674476947          1.0000   
         C         C         1.0       0.9727117254023655  0.10990301513232781           0.005310086183174079         1.0000   
         C         C         1.0       0.9549606656717298  0.12175627980312868           0.016485073634843417         1.0000   
         C         C         1.0       0.9386291548223193  0.1114256068379343  0.03365979989714596          1.0000   
         C         C         1.0       0.9398793580126958  0.08771889363385243           0.038135125467695374         1.0000   
         C         C         1.0       0.9594451369248023  0.07653476128911958           0.028109999630663074         1.0000   
         C         C         1.0       0.9748820779303283  0.08718567633644847           0.011133966315352685         1.0000   
         C         C         1.0       0.9279712214574538  0.04946409371292487           0.06493480104999068          1.0000   
         C         C         1.0       0.9151619184435671  0.02845060664612964           0.0640110054720767 1.0000   
         C         C         1.0       0.9201269373981761  0.011418242326140415         0.08182986997347674          1.0000   
         C         C         1.0       0.9378502278474765  0.015186756969569394         0.09928932775067645          1.0000   
         C         C         1.0       0.9503816065019441  0.03524754939959182           0.10002000002502229          1.0000   
         C         C         1.0       0.9459580957975957  0.051475313437390785         0.08196363157154479          1.0000   
         C         C         1.0       0.912897624543765   0.09763309971804189           0.09305031975377631          1.0000   
         C         C         1.0       0.9001537484488744  0.10270078643589718           0.11602048095605641          1.0000   
         C         C         1.0       0.8790553509877962  0.09193971389441605           0.11950669548458098          1.0000   
         C         C         1.0       0.9129786230831561  0.0890305691220721  0.6214673176044166 1.0000   
         C         C         1.0       0.9320724320659569  0.07747523246395906           0.6101395238680181 1.0000   
         C         C         1.0       0.9036698397371423  0.08311272559461691           0.07253117043560528          1.0000   
         H         H         1.0       0.9968669250263424  0.09829015490808696           0.4462956951451522 1.0000   
         H         H         1.0       0.9994124370681398  0.11155158128452762           0.5311539442976171 1.0000   
         H         H         1.0       0.990352469716597   0.15276325392427265           0.5241797867094014 1.0000   
         H         H         1.0       0.9880454520341122  0.13842264493285883           0.43846047932691745          1.0000   
         H         H         1.0       0.03029627993523043           0.09006841374393451          0.5355164544808758 1.0000   
         H         H         1.0       0.07420182743021986           0.09203317547640892          0.5346673694698031 1.0000   
         H         H         1.0       0.07462576206921345           0.07579670075926503          0.4501600831164099 1.0000   
         H         H         1.0       0.03218604860257934           0.0649239128373293 0.4540913987367819 1.0000   
         H         H         1.0       0.9602010927144642  0.08461049687237714           0.5199435147485206 1.0000   
         H         H         1.0       0.953983851334911   0.08737757409926931           0.5649336728915071 1.0000   
         H         H         1.0       0.0008221044087235452         0.033090638742536926         0.5783208963392653 1.0000   
         H         H         1.0       0.0157998122973928  0.04095696565455932           0.5330548613685749 1.0000   
         H         H         1.0       0.9547047079471631  0.13917024892571012           0.008931107739897692         1.0000   
         H         H         1.0       0.9256506068048101  0.12122129548542161           0.04461127215784511          1.0000   
         H         H         1.0       0.9590435091836833  0.05783500788682521           0.025355516851541582         1.0000   
         H         H         1.0       0.9873113685731378  0.07770884236589318           0.9987230099680499 1.0000   
         H         H         1.0       0.9001273272565098  0.025889922026059334         0.05076855929548763          1.0000   
         H         H         1.0       0.9093392114477784  0.9964391581543985  0.08312957278893422          1.0000   
         H         H         1.0       0.9620124276106705  0.038358235903868484         0.11770753018807938          1.0000   
         H         H         1.0       0.955806479271774   0.06648306521925623           0.08368295879224201          1.0000   
         H         H         1.0       0.9306709671500659  0.10282040530402152           0.09069180813065963          1.0000   
         H         H         1.0       0.9044636296042899  0.11573959471143046           0.13001574734657045          1.0000   
         H         H         1.0       0.896310706612529   0.08455172732712993           0.6133116762369478 1.0000   
         H         H         1.0       0.9298369265886504  0.06435326426049649           0.5944295396276579 1.0000   
         C         C         1.0       0.6065382804188029  0.5488403031760534  0.19127355302032914          1.0000   
         C         C         1.0       0.5883247280287376  0.5340721735107911  0.1855235025549418 1.0000   
         C         C         1.0       0.5905890492288342  0.5182141840062069  0.16463223839662813          1.0000   
         C         C         1.0       0.6101317819835034  0.5174267058178654  0.14880536659102733          1.0000   
         C         C         1.0       0.6292593734082865  0.5306482424363392  0.15720940765533647          1.0000   
         C         C         1.0       0.6268199959205195  0.5473210172312217  0.1771424202938683 1.0000   
         H         H         1.0       0.5711839545524804  0.5364860785484789  0.1961109091013613 1.0000   
         H         H         1.0       0.5749852099383354  0.5089884868269646  0.15744914257423703          1.0000   
         H         H         1.0       0.6456929001633617  0.528212541369685   0.1470750527151574 1.0000   
         H         H         1.0       0.643014804130832   0.5559771108836968  0.18315787826887173          1.0000   
         C         C         1.0       0.6398164172746269  0.5256651752475019  0.09568381831149289          1.0000   
         C         C         1.0       0.6340495483660882  0.5030521726588234  0.10171713047182375          1.0000   
         C         C         1.0       0.6465798299421716  0.48497593989434423           0.09106045287578701          1.0000   
         C         C         1.0       0.667906869491799   0.48989535567473835           0.08171896321065485          1.0000   
         C         C         1.0       0.6757912951265486  0.512852609557978   0.07958661351125772          1.0000   
         C         C         1.0       0.6432143075241141  0.5237930813987769  0.5799983545490771 1.0000   
         C         C         1.0       0.6137561029595884  0.49730261628593064           0.12426228525246678          1.0000   
         C         C         1.0       0.5908788963470157  0.4943404200398694  0.10604907287488097          1.0000   
         C         C         1.0       0.5864271890598081  0.47335725069846857           0.09376633657598937          1.0000   
         C         C         1.0       0.5797596675782656  0.4370256894666443  0.5577822439315052 1.0000   
         C         C         1.0       0.5647292151107212  0.44865909205537613           0.5414784173911236 1.0000   
         C         C         1.0       0.5629508931993209  0.4721906766707564  0.5446924784676616 1.0000   
         C         C         1.0       0.5732677762299139  0.48303750557244546           0.5654619307919968 1.0000   
         C         C         1.0       0.6403817684396436  0.47487064297392867           0.1518508916456499 1.0000   
         C         C         1.0       0.6471521241609752  0.45937139278720024           0.17043170306866837          1.0000   
         C         C         1.0       0.6318763029498008  0.44337143947737895           0.1815850187778412 1.0000   
         C         C         1.0       0.6094008045741329  0.4445227925397051  0.1722699777569332 1.0000   
         C         C         1.0       0.6030642103524527  0.46101565538907396           0.15407865550567004          1.0000   
         C         C         1.0       0.6185891710660503  0.4762539719953827  0.14330091808126458          1.0000   
         C         C         1.0       0.6404114117716048  0.4227619217417024  0.2001262481322282 1.0000   
         C         C         1.0       0.6866269395242431  0.4712579182343627  0.2417731031035941 1.0000   
         C         C         1.0       0.6636344266582325  0.470217427546594   0.24849303336532413          1.0000   
         C         C         1.0       0.6490024754037934  0.4551871968724875  0.23595867603956877          1.0000   
         C         C         1.0       0.6581181470292583  0.4365353703037206  0.2207126883897027 1.0000   
         C         C         1.0       0.681524658445543   0.43437506558398536           0.22018401752649602          1.0000   
         C         C         1.0       0.6950357733775109  0.4527904513852315  0.22712882931296063          1.0000   
         C         C         1.0       0.6480391206773208  0.40331631057665585           0.17844773605514044          1.0000   
         C         C         1.0       0.6327679603901466  0.3858111575811834  0.1719132385499123 1.0000   
         C         C         1.0       0.6377648003443724  0.36834016996950375           0.1530398064767639 1.0000   
         C         C         1.0       0.6595900378933939  0.3679933823249135  0.14206023661281264          1.0000   
         C         C         1.0       0.6744637079266392  0.3864051755476524  0.14750741686683075          1.0000   
         C         C         1.0       0.6684156692124247  0.40404838196941273           0.1644217997825287 1.0000   
         C         C         1.0       0.6353904176067081  0.39259118262874476           0.23874740888142154          1.0000   
         C         C         1.0       0.6228485406031427  0.3784329561486557  0.2540655460388361 1.0000   
         C         C         1.0       0.6004034131765983  0.38207318544558677           0.25639195634836653          1.0000   
         C         C         1.0       0.5909009343568272  0.4011926091330557  0.245132718036976  1.0000   
         C         C         1.0       0.6033401700132035  0.4162187405818371  0.23086302699370656          1.0000   
         C         C         1.0       0.6260602381271044  0.41081388985868944           0.22490164477267746          1.0000   
         H         H         1.0       0.6305368352940343  0.5391680850978864  0.10454078089847887          1.0000   
         H         H         1.0       0.6424494297121465  0.46731221073949125           0.09239395037514661          1.0000   
         H         H         1.0       0.6803325176937767  0.47663658551924093           0.07546744545717508          1.0000   
         H         H         1.0       0.6436638554661375  0.5415750470561335  0.5736961756591809 1.0000   
         H         H         1.0       0.5998417491000729  0.46024819798535943           0.09476933148322039          1.0000   
         H         H         1.0       0.5838730637974258  0.4188127884818466  0.5562016131257973 1.0000   
         H         H         1.0       0.5512661728732892  0.48050809731451866           0.5296581784482093 1.0000   
         H         H         1.0       0.5699443389376722  0.501554918388486   0.5677808667503256 1.0000   
         H         H         1.0       0.6532116793745268  0.4877421199593715  0.14673456691127415          1.0000   
         H         H         1.0       0.6653511135998637  0.45899440031415545           0.17415158119447852          1.0000   
         H         H         1.0       0.5975967973931264  0.43444975286765947           0.18263223520575647          1.0000   
         H         H         1.0       0.5848075596617048  0.46437469054269215           0.1491141472024569 1.0000   
         H         H         1.0       0.6577529014503727  0.4852438085063905  0.25870515436604535          1.0000   
         H         H         1.0       0.6301575095472767  0.45691673712514064           0.23998081706080251          1.0000   
         H         H         1.0       0.6881080716534911  0.42072699689402976           0.20704278843952853          1.0000   
         H         H         1.0       0.7121196108698331  0.4520820309056525  0.2185328494181144 1.0000   
         H         H         1.0       0.615460206365274   0.38669976917008947           0.17972885495818428          1.0000   
         H         H         1.0       0.6258671833972306  0.35561164191039296           0.1484013071914709 1.0000   
         H         H         1.0       0.6903526624434576  0.3853210689738801  0.13722760033534484          1.0000   
         H         H         1.0       0.6799284888682158  0.41739823551510985           0.16652388170222232          1.0000   
         H         H         1.0       0.6523907216191179  0.38740964000973    0.23450108842340453          1.0000   
         H         H         1.0       0.6307111921312454  0.3635977726064626  0.26429356038625246          1.0000   
         H         H         1.0       0.57304847933757    0.4042665528933918  0.25119896647541107          1.0000   
         H         H         1.0       0.595586526401957   0.4321986379070873  0.22461077072354252          1.0000   
         C         C         1.0       0.560429370507426   0.4592669630963296  0.41882526470603354          1.0000   
         C         C         1.0       0.5649918765107818  0.43622392564655577           0.4157517735786795 1.0000   
         C         C         1.0       0.5835380559277041  0.43066581462486064           0.4003683414771643 1.0000   
         C         C         1.0       0.5974955638619761  0.44697025065833734           0.3880769436615461 1.0000   
         C         C         1.0       0.5946926058440815  0.4694774440158927  0.3953950094040018 1.0000   
         C         C         1.0       0.5751223695008908  0.47625026046197283           0.40875408197775714          1.0000   
         H         H         1.0       0.5539249480841275  0.42224587709297495           0.42312571423400963          1.0000   
         H         H         1.0       0.5873410226885075  0.4130206515423034  0.3969990297789319 1.0000   
         H         H         1.0       0.6083181278861601  0.4803508832739204  0.38958337519497754          1.0000   
         H         H         1.0       0.5710844493094279  0.49471263412154387           0.41397312264317115          1.0000   
         C         C         1.0       0.6176866676033836  0.4711969486903801  0.3374385784737007 1.0000   
         C         C         1.0       0.6299505600445295  0.455156100809279   0.35112904131335126          1.0000   
         C         C         1.0       0.6530038203491835  0.4563308393970264  0.3458481369434606 1.0000   
         C         C         1.0       0.6631669494836405  0.47565200345344716           0.3375119544005542 1.0000   
         C         C         1.0       0.6500283207505811  0.4940108547505065  0.32861185391262904          1.0000   
         C         C         1.0       0.6268204503372059  0.4920918198185616  0.32833849226099737          1.0000   
         C         C         1.0       0.6179961393747837  0.4375886398360294  0.3709187587576689 1.0000   
         C         C         1.0       0.6137870562454402  0.4159615117011181  0.3514547312128777 1.0000   
         C         C         1.0       0.6303705518806567  0.40009668330108095           0.3434067722865702 1.0000   
         C         C         1.0       0.6243234129534704  0.38094425912357643           0.32707331181895216          1.0000   
         C         C         1.0       0.601944026816383   0.37702498256847256           0.3199148122244752 1.0000   
         C         C         1.0       0.5857057101988123  0.39172941018850865           0.3287535726209194 1.0000   
         C         C         1.0       0.591552130880648   0.4112341418462107  0.34396647498771665          1.0000   
         C         C         1.0       0.6472168516676092  0.44856375034128954           0.40704704172255946          1.0000   
         C         C         1.0       0.6559743262498199  0.4474075294792154  0.43328124299349796          1.0000   
         C         C         1.0       0.6551722343978227  0.4268541636408186  0.44566518667786953          1.0000   
         C         C         1.0       0.6459154540050069  0.4074405630687315  0.43135648304940416          1.0000   
         C         C         1.0       0.6374154094081406  0.40958198867433415           0.4060730419725393 1.0000   
         C         C         1.0       0.6355645775304402  0.4310431004198847  0.39407859879666884          1.0000   
         C         C         1.0       0.6595022480035541  0.4258525944467422  0.4784600849655454 1.0000   
         C         C         1.0       0.7005638533667518  0.48622414788062013           0.4976421587261025 1.0000   
         C         C         1.0       0.6841590006274406  0.47982442378904566           0.5161077619483193 1.0000   
         C         C         1.0       0.6736600898170212  0.4585436758443795  0.5135581391190018 1.0000   
         C         C         1.0       0.6758958052524418  0.44654489184457224           0.48941120318404896          1.0000   
         C         C         1.0       0.6948995776451733  0.4515001347335447  0.4740228939490367 1.0000   
         C         C         1.0       0.7073628809176082  0.4712833220779772  0.47778156440720077          1.0000   
         C         C         1.0       0.6721415630742915  0.40525456407213795           0.4928668386078404 1.0000   
         C         C         1.0       0.6854322647373479  0.3904769780078947  0.47744023585712664          1.0000   
         C         C         1.0       0.6979144613959551  0.37414551553009445           0.49024391560254665          1.0000   
         C         C         1.0       0.6951794677290786  0.3704737781927133  0.5173075969407414 1.0000   
         C         C         1.0       0.6810866279589197  0.38439885054468137           0.5329315993886076 1.0000   
         C         C         1.0       0.6696336024240485  0.40202684735522176           0.5204488020251329 1.0000   
         C         C         1.0       0.6202377133457753  0.41085622394472165           0.49006573789533747          1.0000   
         C         C         1.0       0.5964785817382857  0.41321582173616256           0.4905264190475658 1.0000   
         C         C         1.0       0.5876917905255624  0.43452660968212814           0.4910470796558907 1.0000   
         C         C         1.0       0.6010428775704877  0.4538925429834233  0.4914871335879637 1.0000   
         C         C         1.0       0.6242188159219401  0.4514575929207865  0.4887078502201386 1.0000   
         C         C         1.0       0.6343929358960129  0.42980363785826786           0.48810256899600196          1.0000   
         H         H         1.0       0.599802299821276   0.4685989680819254  0.3374902431314775 1.0000   
         H         H         1.0       0.664880701630912   0.44492923371375326           0.35478094662163573          1.0000   
         H         H         1.0       0.6821174637169389  0.47894959908556284           0.3369596539265094 1.0000   
         H         H         1.0       0.6154824666051775  0.5051602318808619  0.3215382067395013 1.0000   
         H         H         1.0       0.6486935969660065  0.4021045235281765  0.3494145632146885 1.0000   
         H         H         1.0       0.6372138373690129  0.36995212855377974           0.3171861316790196 1.0000   
         H         H         1.0       0.5684470133155576  0.3904567844784572  0.3239952771154357 1.0000   
         H         H         1.0       0.5783138728557458  0.422070547849891   0.34924380080626316          1.0000   
         H         H         1.0       0.6471358528449813  0.46631874434461423           0.4006205654381772 1.0000   
         H         H         1.0       0.6620318936070364  0.464360605665818   0.44170220144805905          1.0000   
         H         H         1.0       0.6421893982224979  0.39089837802166594           0.44079617758819145          1.0000   
         H         H         1.0       0.6290170571854705  0.3945957352720611  0.3968872621462869 1.0000   
         H         H         1.0       0.6781735194638723  0.4932091259290343  0.5303785759560025 1.0000   
         H         H         1.0       0.6599719244115679  0.45398259965148474           0.5278262231706886 1.0000   
         H         H         1.0       0.7002801061535497  0.44086576602406385           0.45797174788440725          1.0000   
         H         H         1.0       0.7201313436267993  0.47649161882637064           0.4633491925090308 1.0000   
         H         H         1.0       0.6879987243198347  0.39242520005493925           0.4550992168606506 1.0000   
         H         H         1.0       0.711093058098092   0.3660203618141887  0.47941727899238495          1.0000   
         H         H         1.0       0.6791976434380044  0.3811817634184631  0.5535535100674995 1.0000   
         H         H         1.0       0.660242279304707   0.414374718951627   0.5326677328530905 1.0000   
         H         H         1.0       0.6258551357318534  0.3934774584700769  0.48702406605748305          1.0000   
         H         H         1.0       0.5850890396257339  0.39764798151323877           0.49083188226018865          1.0000   
         H         H         1.0       0.5937301929042412  0.4704858703740827  0.48889404057096575          1.0000   
         H         H         1.0       0.6346689986039092  0.46626397599901115           0.48577884196448057          1.0000   
         C         C         1.0       0.7864341477947023  0.6286086697177277  0.205735320560812  1.0000   
         C         C         1.0       0.7698209261379657  0.6458091016064971  0.21075895055072952          1.0000   
         C         C         1.0       0.7492731595624258  0.638590704607724   0.22072182582132985          1.0000   
         C         C         1.0       0.7437119160536173  0.6155323105420116  0.22330296026558036          1.0000   
         C         C         1.0       0.761132215302814   0.5994053335595783  0.21760706673932978          1.0000   
         C         C         1.0       0.7818609688549207  0.6058249084811544  0.21053747793771313          1.0000   
         H         H         1.0       0.7735946062871792  0.6639423798917242  0.2094314001673467 1.0000   
         H         H         1.0       0.7369221079506275  0.6527313366730974  0.22625324590549847          1.0000   
         H         H         1.0       0.7587176817959344  0.5813762600580556  0.22277493616721092          1.0000   
         H         H         1.0       0.7956829916754237  0.593359498163372   0.21173108023215406          1.0000   
         C         C         1.0       0.7147513553825642  0.5706351276274463  0.2072315061426604 1.0000   
         C         C         1.0       0.7110478651631003  0.58291277446765    0.23186573735863722          1.0000   
         C         C         1.0       0.6996519038685765  0.5692873834016495  0.2512183347968124 1.0000   
         C         C         1.0       0.6926512677560024  0.5468329675907342  0.24673627353312663          1.0000   
         C         C         1.0       0.6978336284383566  0.5351396334038572  0.22336624388551873          1.0000   
         C         C         1.0       0.7081252050960557  0.5480953971481793  0.2036689395329948 1.0000   
         C         C         1.0       0.7195157456190606  0.6088592150552394  0.23642620350610374          1.0000   
         C         C         1.0       0.6976532324669481  0.6215630734820484  0.22557698071903262          1.0000   
         C         C         1.0       0.6782576247786091  0.6227604596910704  0.2418425981765106 1.0000   
         C         C         1.0       0.6586243410077635  0.6331523626915361  0.23273007757297698          1.0000   
         C         C         1.0       0.6591854501462591  0.6451075758451543  0.20815295802915748          1.0000   
         C         C         1.0       0.6791696821359724  0.6447142028705698  0.193113050476127  1.0000   
         C         C         1.0       0.697507689966559   0.6312246257508031  0.20013941401802446          1.0000   
         C         C         1.0       0.7395380531088609  0.5946005760433365  0.2809161405596296 1.0000   
         C         C         1.0       0.7424189818315332  0.5950550812522346  0.3081180668551378 1.0000   
         C         C         1.0       0.7309231081521917  0.6117266836698835  0.3242889792061861 1.0000   
         C         C         1.0       0.7179304330638842  0.628279662647064   0.310831765900941  1.0000   
         C         C         1.0       0.7173087612751236  0.6282897806791453  0.28341987215653197          1.0000   
         C         C         1.0       0.7263446936665233  0.6110458074459112  0.2672314948835564 1.0000   
         C         C         1.0       0.730020849032998   0.6097382392610677  0.35472909778297   1.0000   
         C         C         1.0       0.6814622280108594  0.549034170319369   0.3530327199189673 1.0000   
         C         C         1.0       0.7051894576092645  0.5449929393750768  0.3581319313225476 1.0000   
         C         C         1.0       0.7209035430330094  0.5636866672045939  0.35879861155872095          1.0000   
         C         C         1.0       0.7135788140095801  0.5865495870159921  0.35546304394684475          1.0000   
         C         C         1.0       0.689706134758003   0.5892847004131608  0.3497937216995556 1.0000   
         C         C         1.0       0.6749374007133957  0.5710251672042573  0.34556150134461555          1.0000   
         C         C         1.0       0.720445875363879   0.6303781646839633  0.37292295289568356          1.0000   
         C         C         1.0       0.7289508808036519  0.6526007335117169  0.3711711051321752 1.0000   
         C         C         1.0       0.7192710013142016  0.6708270675633281  0.3860833251915767 1.0000   
         C         C         1.0       0.7037432367885043  0.6666738165935363  0.40601957553623363          1.0000   
         C         C         1.0       0.6949041147452563  0.6447209485699846  0.40783855523394846          1.0000   
         C         C         1.0       0.7042720193195376  0.6273349162773094  0.39285569650613267          1.0000   
         C         C         1.0       0.7581020940495611  0.5965049538126851  0.39388929284323304          1.0000   
         C         C         1.0       0.7798030780706481  0.591729830573843   0.4019698159199968 1.0000   
         C         C         1.0       0.798994180271806   0.6014191621531033  0.3906358563276169 1.0000   
         C         C         1.0       0.7960808150673314  0.6145432986623096  0.36727222132005516          1.0000   
         C         C         1.0       0.7746215530954191  0.6172094069239118  0.3567895289036062 1.0000   
         C         C         1.0       0.755375397669875   0.6069596379477968  0.3689412872468214 1.0000   
         H         H         1.0       0.7238391293493038  0.5787792809213802  0.1908531098869078 1.0000   
         H         H         1.0       0.6960967859315905  0.5755622876589458  0.27133090346578775          1.0000   
         H         H         1.0       0.6827420519888171  0.5363384064260054  0.26164650732488026          1.0000   
         H         H         1.0       0.7113928970794853  0.5392685156167352  0.18369428006767835          1.0000   
         H         H         1.0       0.6773400544585707  0.61307848566126    0.26057214500933323          1.0000   
         H         H         1.0       0.6452818091289617  0.632436380780323   0.24868143803332504          1.0000   
         H         H         1.0       0.6782476079980462  0.6520256136126813  0.1723394729201928 1.0000   
         H         H         1.0       0.7111484426679373  0.6291792035632525  0.18592245599420332          1.0000   
         H         H         1.0       0.7462895828049076  0.5798520327218003  0.27060232826471753          1.0000   
         H         H         1.0       0.7519741497917083  0.5813764821356819  0.3186992481499782 1.0000   
         H         H         1.0       0.7072004392175185  0.6405554020932887  0.3205807599385902 1.0000   
         H         H         1.0       0.7101875709195155  0.642051633958363   0.2754686546101247 1.0000   
         H         H         1.0       0.7090250522617352  0.5274025283164199  0.3629681957690233 1.0000   
         H         H         1.0       0.7392498098992869  0.5602676123301467  0.35984936981174886          1.0000   
         H         H         1.0       0.6817153582953138  0.6054828614652885  0.349713106019451  1.0000   
         H         H         1.0       0.6578029899006065  0.5750383313704054  0.3424364408811226 1.0000   
         H         H         1.0       0.741669636210543   0.6559957907780272  0.3547355471631665 1.0000   
         H         H         1.0       0.725312288550332   0.6882243233973437  0.38151125328283986          1.0000   
         H         H         1.0       0.6813568924932573  0.6405844327771918  0.4209664547864046 1.0000   
         H         H         1.0       0.6975895154599353  0.6098553716565385  0.39735438669767376          1.0000   
         H         H         1.0       0.7447056510074525  0.5874036461654513  0.4031957553380347 1.0000   
         H         H         1.0       0.7800271019247149  0.580244275020014   0.4182450225056486 1.0000   
         H         H         1.0       0.8105463093619567  0.6236544481279751  0.35870189703596017          1.0000   
         H         H         1.0       0.770481675855892   0.6291048686653677  0.3412642178052819 1.0000   
         C         C         1.0       0.7043389549203961  0.6728530302133607  0.4745535483133815 1.0000   
         C         C         1.0       0.6902786865999725  0.6781245496756767  0.49713383241701137          1.0000   
         C         C         1.0       0.6869234436113015  0.6611860180157308  0.5154801363060981 1.0000   
         C         C         1.0       0.6950203544358654  0.638796918914784   0.5121096005966579 1.0000   
         C         C         1.0       0.7096974654090645  0.6356078421098087  0.4912603605060344 1.0000   
         C         C         1.0       0.7152305110944779  0.6529797106331161  0.47350827192588407          1.0000   
         H         H         1.0       0.6812901891993699  0.6939293238392298  0.4990807686668086 1.0000   
         H         H         1.0       0.6766846499967972  0.6662183765547818  0.5322882117769225 1.0000   
         H         H         1.0       0.7167264276275858  0.6184688259770916  0.4861492026998693 1.0000   
         H         H         1.0       0.7253978693736947  0.647993753011624   0.45615857904049534          1.0000   
         C         C         1.0       0.6789524484608461  0.5901001215028462  0.48835830000787084          1.0000   
         C         C         1.0       0.6811432729244444  0.5933346797845935  0.5166761852813797 1.0000   
         C         C         1.0       0.6793561655206471  0.574482946188878   0.5331244028476853 1.0000   
         C         C         1.0       0.6763850268458884  0.5530918445822156  0.5211761680756909 1.0000   
         C         C         1.0       0.6788436128358362  0.549488286672546   0.493426396989639  1.0000   
         C         C         1.0       0.6771519409683935  0.5684352665190229  0.4772593756903665 1.0000   
         C         C         1.0       0.68827511736612    0.6172930877357399  0.5313572089626343 1.0000   
         C         C         1.0       0.6662330941925496  0.6222056926047068  0.5500865729484876 1.0000   
         C         C         1.0       0.6648521441439182  0.613306473478218   0.5761119070339159 1.0000   
         C         C         1.0       0.6442262156010927  0.6141726223640522  0.5901100698721164 1.0000   
         C         C         1.0       0.6251610611371126  0.6238026750137211  0.5798284216839703 1.0000   
         C         C         1.0       0.6259192817433386  0.6318115160809367  0.5537391890130909 1.0000   
         C         C         1.0       0.6452315736733814  0.6294784874590681  0.538719126619906  1.0000   
         C         C         1.0       0.7289326126417158  0.5979828417859624  0.5349996414306772 1.0000   
         C         C         1.0       0.7485825746519553  0.5936157224361291  0.5471828659927935 1.0000   
         C         C         1.0       0.7528712169627116  0.6004667455526485  0.5730226941397292 1.0000   
         C         C         1.0       0.7373208068941193  0.6156746185975618  0.5842264361907249 1.0000   
         C         C         1.0       0.7188888414403078  0.6248274298090493  0.570177957537904  1.0000   
         C         C         1.0       0.7124986857819063  0.6128943538436106  0.5462583817133322 1.0000   
         C         C         1.0       0.7804845347274358  0.5920921765367443  0.07565870656333662          1.0000   
         C         C         1.0       0.7377097830176943  0.5320427626980595  0.09166368118120927          1.0000   
         C         C         1.0       0.7521210043173681  0.5307227827793755  0.06964817913697179          1.0000   
         C         C         1.0       0.7674385688708906  0.5493117154904809  0.0652320591011618 1.0000   
         C         C         1.0       0.7689015553100124  0.5679506735792995  0.08242320877837722          1.0000   
         C         C         1.0       0.7543542733511432  0.5681360145940758  0.10479905166393323          1.0000   
         C         C         1.0       0.7398779876038291  0.5505037057408871  0.10963129433072037          1.0000   
         C         C         1.0       0.7911065020843291  0.6071472729025807  0.1006924345408861 1.0000   
         C         C         1.0       0.791466338298978   0.6308669780711341  0.10112015706413925          1.0000   
         C         C         1.0       0.7987454434107034  0.6434290280365232  0.12331499640263409          1.0000   
         C         C         1.0       0.8066920604192118  0.6317658356194584  0.1455275748756188 1.0000   
         C         C         1.0       0.8097806275289066  0.6079790010164575  0.14409211846113257          1.0000   
         C         C         1.0       0.8018532425611522  0.5953886991275069  0.12241400515250188          1.0000   
         C         C         1.0       0.8186296094503707  0.5758756380457499  0.054984605712782075         1.0000   
         C         C         1.0       0.8371860580880586  0.5773076413868242  0.03776342492210283          1.0000   
         C         C         1.0       0.8314697661329288  0.5749783714875093  0.5356608539095417 1.0000   
         C         C         1.0       0.8171545033444518  0.5938146214498962  0.5314385639584016 1.0000   
         C         C         1.0       0.8012759044001917  0.5987273499880401  0.5508122175146798 1.0000   
         C         C         1.0       0.8011979625888549  0.5915917814117388  0.05370038955693235          1.0000   
         H         H         1.0       0.6773496563011066  0.6049710729926173  0.47569902734224695          1.0000   
         H         H         1.0       0.6801747020496303  0.5756492620305733  0.5544247501103622 1.0000   
         H         H         1.0       0.6731572233661345  0.5372890930715736  0.5323943528707664 1.0000   
         H         H         1.0       0.6761668925142338  0.5674836947621308  0.455167845609485  1.0000   
         H         H         1.0       0.6778733635513564  0.605781137219025   0.5882045286689395 1.0000   
         H         H         1.0       0.643884468148676   0.607835674309189   0.610659701621683  1.0000   
         H         H         1.0       0.610789653265802   0.6382543475634626  0.5440842437018288 1.0000   
         H         H         1.0       0.6449158188629013  0.6361129661709986  0.5179729864380018 1.0000   
         H         H         1.0       0.7250716222836945  0.5896386860608703  0.5153983182096868 1.0000   
         H         H         1.0       0.7597871950952     0.5820446278913052  0.536294812057345  1.0000   
         H         H         1.0       0.7462491822738145  0.6286878708294213  0.09424977280109449          1.0000   
         H         H         1.0       0.7078226918049492  0.6379900592704291  0.5796485023016321 1.0000   
         H         H         1.0       0.7500473758279396  0.5167727209361654  0.05372833136226852          1.0000   
         H         H         1.0       0.7778154378509343  0.5493271009369527  0.04776719250034978          1.0000   
         H         H         1.0       0.7530366246358653  0.5840110928777092  0.1164869433851049 1.0000   
         H         H         1.0       0.7285153406826627  0.5539890631950442  0.1266166403518137 1.0000   
         H         H         1.0       0.7870707184618899  0.639318551158547   0.08147645526068198          1.0000   
         H         H         1.0       0.7982554931258943  0.6616815483316628  0.12037595605255667          1.0000   
         H         H         1.0       0.8163762154853401  0.5998919440537063  0.1629521238844403 1.0000   
         H         H         1.0       0.8024135850581599  0.5772238885836258  0.1222506000084454 1.0000   
         H         H         1.0       0.8170549855021096  0.5627863906760873  0.07008825503473391          1.0000   
         H         H         1.0       0.8491262497015092  0.5630024761379868  0.04058748099667575          1.0000   
         H         H         1.0       0.8175306841977015  0.6045401254684869  0.513675173871253  1.0000   
         H         H         1.0       0.7902198613116507  0.6122046246213435  0.5466119004051346 1.0000   
         C         C         1.0       0.5694161072533164  0.5962685154229815  0.20171288226165676          1.0000   
         C         C         1.0       0.5537935379942782  0.5890860747513468  0.18174797912466073          1.0000   
         C         C         1.0       0.5316771404204025  0.597371676960326   0.18343062298402887          1.0000   
         C         C         1.0       0.5237448999524299  0.6086472313735352  0.20675468217665557          1.0000   
         C         C         1.0       0.5406539380493353  0.6139185213980721  0.22680019433645307          1.0000   
         C         C         1.0       0.5627229278118597  0.6085744911538867  0.22439060169079061          1.0000   
         H         H         1.0       0.5588853669708996  0.5788573291941446  0.16424484775064738          1.0000   
         H         H         1.0       0.520155440329748   0.5902959676964619  0.1690164047308643 1.0000   
         H         H         1.0       0.5370478843922705  0.6236620923268502  0.24565349567476674          1.0000   
         H         H         1.0       0.5755180939507011  0.6142872745699559  0.24035058235294246          1.0000   
         C         C         1.0       0.4933471691715242  0.6461082468334983  0.2499951289987388 1.0000   
         C         C         1.0       0.4984257477468012  0.6386406840039659  0.2230087430089347 1.0000   
         C         C         1.0       0.5067454495895053  0.6558013378964278  0.20552060730575938          1.0000   
         C         C         1.0       0.5115822254602794  0.6781101536790864  0.2142646473891529 1.0000   
         C         C         1.0       0.5056397817733891  0.6847566050598703  0.240041674208116  1.0000   
         C         C         1.0       0.4961145756047176  0.6685804922494926  0.25832789339269896          1.0000   
         C         C         1.0       0.4968607648777862  0.6124024512113302  0.2121505635764442 1.0000   
         C         C         1.0       0.4895391902454976  0.5915295637214267  0.2317538671819696 1.0000   
         C         C         1.0       0.4726102772923298  0.5937484638267037  0.2523061201291634 1.0000   
         C         C         1.0       0.4647028785981496  0.5747685887127324  0.266863354426472  1.0000   
         C         C         1.0       0.47382449483986006           0.5532909095470326 0.26153009187746457          1.0000   
         C         C         1.0       0.4904260265106024  0.5505115432957781  0.24167112767821775          1.0000   
         C         C         1.0       0.4994360706972186  0.5698261012032378  0.22939492521652158          1.0000   
         C         C         1.0       0.4849437312606073  0.619930858979288   0.16119033831713847          1.0000   
         C         C         1.0       0.4682865665702964  0.62550965989038    0.1417994751739211 1.0000   
         C         C         1.0       0.445543299786959   0.6240282816324058  0.14788705154612924          1.0000   
         C         C         1.0       0.4395696124902302  0.6155822006174874  0.1730967915297455 1.0000   
         C         C         1.0       0.4556482143611928  0.6102115372980382  0.19200381758140458          1.0000   
         C         C         1.0       0.4792344284649753  0.6122712277356764  0.18712994232203467          1.0000   
         C         C         1.0       0.4258216898753434  0.6339614573760606  0.1282381226696125 1.0000   
         C         C         1.0       0.4532927648226196  0.6984791599819072  0.0935911276155559 1.0000   
         C         C         1.0       0.44605088033697177           0.6817608178323221 0.07629859629317197          1.0000   
         C         C         1.0       0.43770656033109634           0.6610824179321212 0.0852592921838471 1.0000   
         C         C         1.0       0.4358987276377523  0.6568892981230133  0.11384166058320308          1.0000   
         C         C         1.0       0.4417819212020518  0.6750989417806902  0.13143166063829906          1.0000   
         C         C         1.0       0.450936458897549   0.6950130304697215  0.12076389013277805          1.0000   
         C         C         1.0       0.4014902833160801  0.6443649748895349  0.13708902653660282          1.0000   
         C         C         1.0       0.3947604707892948  0.6467123382513019  0.16374562430113862          1.0000   
         C         C         1.0       0.37208342203344197           0.6496422619401829 0.1715513859299737 1.0000   
         C         C         1.0       0.3552902513185316  0.6491760106782529  0.15258807634606797          1.0000   
         C         C         1.0       0.3611692818197956  0.648427504423951   0.12490789794715247          1.0000   
         C         C         1.0       0.3838370290461607  0.6453043022597189  0.11804166523723836          1.0000   
         C         C         1.0       0.40378126901547845           0.595177440644906  0.11771847539718226          1.0000   
         C         C         1.0       0.39714589354349866           0.57713584155058   0.10113777184591025          1.0000   
         C         C         1.0       0.4079871530599538  0.5727595121923762  0.0769225019359658 1.0000   
         C         C         1.0       0.42693461806315597           0.5856157251858936 0.07092501175038089          1.0000   
         C         C         1.0       0.4338846583915116  0.6041026299020241  0.08813632995809381          1.0000   
         C         C         1.0       0.42065233651855727           0.6106830626538677 0.11102990055612767          1.0000   
         H         H         1.0       0.4899573741722066  0.6352221383327792  0.267773041659948  1.0000   
         H         H         1.0       0.5129694835481019  0.6528801678121318  0.18498066051093992          1.0000   
         H         H         1.0       0.5206031455647228  0.6890194957003932  0.20015022136535146          1.0000   
         H         H         1.0       0.49293471224277424           0.6736082242142619 0.2796098019167854 1.0000   
         H         H         1.0       0.4630265154549719  0.6094508752918859  0.25730105675070314          1.0000   
         H         H         1.0       0.4506674828407819  0.57889569375734    0.28111699471004103          1.0000   
         H         H         1.0       0.5002412782696802  0.5341795623106496  0.2388449016192373 1.0000   
         H         H         1.0       0.5142247972867959  0.5645119190657694  0.2168590223794346 1.0000   
         H         H         1.0       0.5027262704154001  0.6233642298652258  0.1561264990365618 1.0000   
         H         H         1.0       0.4753080659979482  0.633724320145313   0.12241927562764797          1.0000   
         H         H         1.0       0.4229004045783641  0.6124572830546275  0.17896341599812626          1.0000   
         H         H         1.0       0.44873248080510403           0.6043629822216988 0.21190179507602303          1.0000   
         H         H         1.0       0.4489305457253858  0.6892622401297858  0.5546215149950223 1.0000   
         H         H         1.0       0.43194426584587403           0.6479264358523197 0.07117239555816546          1.0000   
         H         H         1.0       0.44405514802029133           0.6741456863148244 0.15243813309759874          1.0000   
         H         H         1.0       0.4562964303264693  0.708240008438751   0.135048088863691  1.0000   
         H         H         1.0       0.40674918415943234           0.6509018998053993 0.18017906215544455          1.0000   
         H         H         1.0       0.3675944513841759  0.6506121053537631  0.1934788742246398 1.0000   
         H         H         1.0       0.3479079456024185  0.6471265509388885  0.10963764471497618          1.0000   
         H         H         1.0       0.3867721400536326  0.6398872174064166  0.09611745525502716          1.0000   
         H         H         1.0       0.3927869989083554  0.6000420621049658  0.13466412656379254          1.0000   
         H         H         1.0       0.38256574986299413           0.5656347557738128 0.10647752329380947          1.0000   
         H         H         1.0       0.4615723089119361  0.5968500747981835  0.588842463285232  1.0000   
         H         H         1.0       0.44778833843109117           0.6153989383916872 0.08416190870729148          1.0000   
         C         C         1.0       0.514683290922052   0.50462295336781    0.43136599710872775          1.0000   
         C         C         1.0       0.4947679990970577  0.5033561720932109  0.4473497914029579 1.0000   
         C         C         1.0       0.4872346436695149  0.5226049285322777  0.46227915576585704          1.0000   
         C         C         1.0       0.49869883488739913           0.5434186094275477 0.46165396379967105          1.0000   
         C         C         1.0       0.5182351931834633  0.5443529576316838  0.4446563616211952 1.0000   
         C         C         1.0       0.5266564325326881  0.5249047585650346  0.429980412690209  1.0000   
         H         H         1.0       0.48523453730066896           0.4874684683093003 0.4479609669756838 1.0000   
         H         H         1.0       0.4706357438595325  0.5220161531299261  0.47443637549677736          1.0000   
         H         H         1.0       0.5275813056254391  0.5602917868099976  0.44009091337293743          1.0000   
         H         H         1.0       0.542536620435399   0.5254170869668835  0.4183628093540903 1.0000   
         C         C         1.0       0.5300238253092874  0.5737132175875739  0.49914902287936885          1.0000   
         C         C         1.0       0.5089605174908352  0.5821237437173465  0.4913686097402244 1.0000   
         C         C         1.0       0.5047461289468853  0.6060230026594703  0.4974083619280684 1.0000   
         C         C         1.0       0.5212057673121049  0.6203093335356745  0.5079149610293229 1.0000   
         C         C         1.0       0.5424707645772521  0.6112404240445444  0.5145029283607189 1.0000   
         C         C         1.0       0.5464392602234407  0.5880651000716528  0.5121112480973924 1.0000   
         C         C         1.0       0.4898956210602633  0.5661777632813296  0.47693476100271925          1.0000   
         C         C         1.0       0.47519905641017296           0.5614045622100106 0.5037067233338627 1.0000   
         C         C         1.0       0.4570561601943466  0.5754517275338884  0.5119369131625034 1.0000   
         C         C         1.0       0.4422426052653406  0.5674767048381932  0.5312568998424898 1.0000   
         C         C         1.0       0.4468623029830081  0.5488524775157191  0.5469077162944349 1.0000   
         C         C         1.0       0.4674077432714205  0.537896580058054   0.5424214784155343 1.0000   
         C         C         1.0       0.4832615958208155  0.5453498094729212  0.5225808540353148 1.0000   
         C         C         1.0       0.48912303392437634           0.5932223224297639 0.4350890583129398 1.0000   
         C         C         1.0       0.4802197018219835  0.5991108980904767  0.4112812615149048 1.0000   
         C         C         1.0       0.45761817827076334           0.5920838927860967 0.40437776524376734          1.0000   
         C         C         1.0       0.4471145602895185  0.5781899851757198  0.4219762827598818 1.0000   
         C         C         1.0       0.456356874091709   0.5706225491821268  0.445236081131836  1.0000   
         C         C         1.0       0.47815143682758143           0.5780004905656946 0.45295176944294274          1.0000   
         C         C         1.0       0.4487227739699318  0.6000553130632438  0.3748665120301283 1.0000   
         C         C         1.0       0.48031608599009973           0.6655781831917323 0.3501566546853548 1.0000   
         C         C         1.0       0.47366487076459557           0.6502888689308686 0.33096407673308625          1.0000   
         C         C         1.0       0.46036774224431465           0.6309408186112423 0.33780223450742997          1.0000   
         C         C         1.0       0.45736097213495874           0.6249963163965745 0.3660773954131246 1.0000   
         C         C         1.0       0.46298022593226495           0.6424243992173835 0.38548221849161   1.0000   
         C         C         1.0       0.4735845662819464  0.6621869458703683  0.3771661009843346 1.0000   
         C         C         1.0       0.4219076769716611  0.604815971727877   0.37114575939987715          1.0000   
         C         C         1.0       0.4070190082091368  0.6080027571880783  0.39339788242791984          1.0000   
         C         C         1.0       0.3838450590046782  0.6090917230823046  0.3890270900179064 1.0000   
         C         C         1.0       0.37421981312072944           0.6055140301298544 0.3639502197923848 1.0000   
         C         C         1.0       0.388353963911861   0.6032350481169395  0.34217239380013925          1.0000   
         C         C         1.0       0.4123982668934933  0.6041304489777787  0.34503311080768606          1.0000   
         C         C         1.0       0.4455202803435193  0.5589659231241709  0.35494188025161033          1.0000   
         C         C         1.0       0.4533347268242744  0.5413789418778555  0.3387895740232553 1.0000   
         C         C         1.0       0.473131999364782   0.5435945738835409  0.32485371607502   1.0000   
         C         C         1.0       0.4874140874420163  0.562008089527969   0.32880458642674226          1.0000   
         C         C         1.0       0.4797647261257079  0.5799474140041279  0.34457527709561736          1.0000   
         C         C         1.0       0.45764526146392    0.5795582980123204  0.3563578278943537 1.0000   
         H         H         1.0       0.5316899676731796  0.5551186944980132  0.5006175587925622 1.0000   
         H         H         1.0       0.4880677941074723  0.6144515118587098  0.49224253287578434          1.0000   
         H         H         1.0       0.5171031223067087  0.6379293071541006  0.5100105615319712 1.0000   
         H         H         1.0       0.5621544787121175  0.5804274640195298  0.5192362410544114 1.0000   
         H         H         1.0       0.45290937814182664           0.5918215223920855 0.5015024200312302 1.0000   
         H         H         1.0       0.4266157611415324  0.5777939972484105  0.5346560381307247 1.0000   
         H         H         1.0       0.4716355175754926  0.5238102356776899  0.5554088771182732 1.0000   
         H         H         1.0       0.4976920393218002  0.5353407112724743  0.5168746704740708 1.0000   
         H         H         1.0       0.5055177799316489  0.5997290204484343  0.4377422485186055 1.0000   
         H         H         1.0       0.4913573757725942  0.6096555695731357  0.39754107309358333          1.0000   
         H         H         1.0       0.43022034388614344           0.5723676044491453 0.4202800564272031 1.0000   
         H         H         1.0       0.4466749500177696  0.559191073067923   0.4579758008820945 1.0000   
         H         H         1.0       0.47578944579147303           0.6544394691402295 0.3089851837458318 1.0000   
         H         H         1.0       0.4553459434428811  0.6192167419136272  0.3208569183994881 1.0000   
         H         H         1.0       0.4577393019245829  0.6413369362413537  0.4058569934878694 1.0000   
         H         H         1.0       0.4796361013160268  0.6741742012930125  0.3924912202181045 1.0000   
         H         H         1.0       0.41304705492817273           0.6109255524756194 0.41315971769123555          1.0000   
         H         H         1.0       0.371586182646206   0.6111797944364697  0.40508142963355187          1.0000   
         H         H         1.0       0.3807606510271635  0.5974137833233399  0.3231176969000602 1.0000   
         H         H         1.0       0.4228054928982303  0.601123001819143   0.3249239284812166 1.0000   
         H         H         1.0       0.43095081354534603           0.555815017808241  0.3671408107484157 1.0000   
         H         H         1.0       0.4433961427924547  0.5266339263568379  0.3353705150587612 1.0000   
         H         H         1.0       0.5045562105042065  0.5625919612522046  0.3185817578131431 1.0000   
         H         H         1.0       0.4907603300673044  0.5945276950854631  0.34706616634847953          1.0000   
         C         C         1.0       0.6534528032921023  0.7534328919196246  0.3566216882149847 1.0000   
         C         C         1.0       0.6581840552593172  0.7469454973344154  0.3291331659229609 1.0000   
         C         C         1.0       0.6411202777179763  0.7408162405333925  0.3112609750174938 1.0000   
         C         C         1.0       0.6188486796280755  0.740816235947777   0.31910663244494   1.0000   
         C         C         1.0       0.6134328659125388  0.7474728565076607  0.3456433255985856 1.0000   
         C         C         1.0       0.6301256239795354  0.7540294401498066  0.36372419663860994          1.0000   
         H         H         1.0       0.6766081747462718  0.746619040209154   0.322538852207732  1.0000   
         H         H         1.0       0.6454979533620615  0.7385527927783542  0.28931003845807524          1.0000   
         H         H         1.0       0.5965801983947523  0.7507563832256875  0.352935136514834  1.0000   
         H         H         1.0       0.6237173763502775  0.7602240356818474  0.3826300525442827 1.0000   
         C         C         1.0       0.5811470123715728  0.7024303789680211  0.33364237372386396          1.0000   
         C         C         1.0       0.5776444322127545  0.7210405506823845  0.3163667307506749 1.0000   
         C         C         1.0       0.5549942288976012  0.7237427673743582  0.3086992947429926 1.0000   
         C         C         1.0       0.5376413169718501  0.710125519549475   0.319123732194057  1.0000   
         C         C         1.0       0.5417404258393448  0.6938185713096147  0.33824537382447123          1.0000   
         C         C         1.0       0.5635961139385567  0.6880873951650165  0.34392162836331197          1.0000   
         C         C         1.0       0.5981437159680683  0.73423318152087    0.2993861101306709 1.0000   
         C         C         1.0       0.6030153503646315  0.7143363122799512  0.2760893018397171 1.0000   
         C         C         1.0       0.5905603258786043  0.7130912628130026  0.25263193795961175          1.0000   
         C         C         1.0       0.5956891870145812  0.6978119623694314  0.2322604657475094 1.0000   
         C         C         1.0       0.6122161871786278  0.6809606190041712  0.2355516976025172 1.0000   
         C         C         1.0       0.6232711515220938  0.6798198655796753  0.26019758952377914          1.0000   
         C         C         1.0       0.6191060456105079  0.6970377296161258  0.2798714932599235 1.0000   
         C         C         1.0       0.5783702344742281  0.7730079199778436  0.3061567909322812 1.0000   
         C         C         1.0       0.5676374763880325  0.7917415661621864  0.29509811715961265          1.0000   
         C         C         1.0       0.5694238994175586  0.7959486064715727  0.2676524508041339 1.0000   
         C         C         1.0       0.5842738622388758  0.7821065701122893  0.2518383309918518 1.0000   
         C         C         1.0       0.5961436237872777  0.7651999869956488  0.26453111623940806          1.0000   
         C         C         1.0       0.5910146549779597  0.7581719461473606  0.2899006196921945 1.0000   
         C         C         1.0       0.5506369552784699  0.8111902886642284  0.25496807643419567          1.0000   
         C         C         1.0       0.5033446187549145  0.7523879090153405  0.2398343024964303 1.0000   
         C         C         1.0       0.5042648817053391  0.762421042440531   0.26514244088974204          1.0000   
         C         C         1.0       0.5163250575116725  0.7827332537122612  0.27016167276299863          1.0000   
         C         C         1.0       0.5306179279569674  0.7919395481086231  0.25052170037243876          1.0000   
         C         C         1.0       0.5302210330940915  0.7814060182893856  0.22432038295669723          1.0000   
         C         C         1.0       0.5152142522303977  0.7629943326188577  0.21953563459330414          1.0000   
         C         C         1.0       0.5589801654392107  0.8254167384223111  0.22697093767247456          1.0000   
         C         C         1.0       0.581214977729499   0.8335135314401022  0.22308751277151218          1.0000   
         C         C         1.0       0.5868750448434041  0.8467390972578717  0.20175741784410503          1.0000   
         C         C         1.0       0.5710248923481822  0.8510673110391539  0.18246406861547074          1.0000   
         C         C         1.0       0.5487320634090641  0.8449584681975912  0.18660444639439874          1.0000   
         C         C         1.0       0.5424963150280899  0.8342896083283232  0.20986682923263217          1.0000   
         C         C         1.0       0.519690625820726   0.8412653560393106  0.27413466524235003          1.0000   
         C         C         1.0       0.5143314485116279  0.8614521214876322  0.2870414676876462 1.0000   
         C         C         1.0       0.5316077241485127  0.8754490950115378  0.2966959719135341 1.0000   
         C         C         1.0       0.5536530896389593  0.8677777125828304  0.2961485084098303 1.0000   
         C         C         1.0       0.5589236393673449  0.8459158275178654  0.28707837408571124          1.0000   
         C         C         1.0       0.5414669010317288  0.8322633500926062  0.27476422385177146          1.0000   
         H         H         1.0       0.5990175797408267  0.6984145511420315  0.3371406989689776 1.0000   
         H         H         1.0       0.551176714299898   0.7351711124776206  0.293792113614866  1.0000   
         H         H         1.0       0.5201208404947857  0.7117287831494048  0.31249171016466665          1.0000   
         H         H         1.0       0.5664921571123038  0.6745448114545205  0.3580534364899904 1.0000   
         H         H         1.0       0.5782845404714995  0.7261067073511626  0.24859370938064457          1.0000   
         H         H         1.0       0.5858808244636279  0.696311988513066   0.2142062372034447 1.0000   
         H         H         1.0       0.6356298628391716  0.6666624819835055  0.2653051906423254 1.0000   
         H         H         1.0       0.6259069601590916  0.6951749080694797  0.3007036588795018 1.0000   
         H         H         1.0       0.5735380797775076  0.7692623100211928  0.3267318174205461 1.0000   
         H         H         1.0       0.5563729497241862  0.8021264471685138  0.3065074821652558 1.0000   
         H         H         1.0       0.5867086077427899  0.7870185551937566  0.2303120373255924 1.0000   
         H         H         1.0       0.6084943522794188  0.7564009775313754  0.2511844533593298 1.0000   
         H         H         1.0       0.497929384536899   0.7520660875599642  0.2828281468954466 1.0000   
         H         H         1.0       0.517860735386468   0.7917223571269445  0.2886318859283148 1.0000   
         H         H         1.0       0.543383286381829   0.785111492011099   0.20939408249280747          1.0000   
         H         H         1.0       0.5150591077581247  0.7559799429107986  0.1982079390755381 1.0000   
         H         H         1.0       0.5938833451609576  0.8275806337321764  0.2374078340099823 1.0000   
         H         H         1.0       0.6044810278906547  0.8514395504539098  0.20013248957248417          1.0000   
         H         H         1.0       0.53386559061513    0.8516239781067091  0.1731536156012121 1.0000   
         H         H         1.0       0.5236078908489425  0.8313114592376244  0.21335471487728525          1.0000   
         H         H         1.0       0.5060340554724677  0.8330359620476134  0.2637575596982354 1.0000   
         H         H         1.0       0.49781798291599294           0.8703097277765813 0.2845345144799154 1.0000   
         H         H         1.0       0.5674156405129562  0.8793404350350289  0.3034146985714049 1.0000   
         H         H         1.0       0.5756093300153654  0.8408496971137515  0.283845774120768  1.0000   
         C         C         1.0       0.5843382567844321  0.8288900414752904  0.12189533673328008          1.0000   
         C         C         1.0       0.6003530999264565  0.8124862165238391  0.1173895402053257 1.0000   
         C         C         1.0       0.5950001124354654  0.791159058387837   0.10675729885208697          1.0000   
         C         C         1.0       0.5723479551737485  0.7865046625580236  0.09862205857948525          1.0000   
         C         C         1.0       0.5564758585688706  0.804222413577984   0.10098173570633176          1.0000   
         C         C         1.0       0.5617097417831665  0.8245051013857838  0.11497870748158254          1.0000   
         H         H         1.0       0.6179504644642325  0.8160592911867779  0.12206502483944552          1.0000   
         H         H         1.0       0.6101998433990422  0.7804164381785591  0.1047609262323021 1.0000   
         H         H         1.0       0.538615802452193   0.8014083985351764  0.09563571297412149          1.0000   
         H         H         1.0       0.5493746292181221  0.8373221266013882  0.11638142448622403          1.0000   
         C         C         1.0       0.529752442350681   0.759823103095208   0.11202224315829738          1.0000   
         C         C         1.0       0.5474465221598022  0.7358681145268068  0.5846917481302959 1.0000   
         C         C         1.0       0.5332586834849725  0.7249967992713324  0.5674426880217179 1.0000   
         C         C         1.0       0.5111848438035134  0.720267707479327   0.5750845634669496 1.0000   
         C         C         1.0       0.49541806406949035           0.741609368804236  0.09784559638385741          1.0000   
         C         C         1.0       0.5078761783830187  0.7535520527200351  0.1170021858155276 1.0000   
         C         C         1.0       0.5741682294457064  0.7382398179086215  0.5777546367351988 1.0000   
         C         C         1.0       0.5822951430328248  0.7141449341597101  0.5872060061201029 1.0000   
         C         C         1.0       0.5821189683993502  0.6950022732304416  0.5693484789876407 1.0000   
         C         C         1.0       0.5882564944201136  0.6739261398942811  0.5768391236607995 1.0000   
         C         C         1.0       0.5941146119345105  0.6708168492935285  0.6040067188720103 1.0000   
         C         C         1.0       0.6032347127933743  0.7169889499448695  0.12207221298759044          1.0000   
         C         C         1.0       0.5899941107191385  0.7364001620966922  0.11671837529583419          1.0000   
         C         C         1.0       0.5665993827706316  0.7488470289390685  0.5286499648628119 1.0000   
         C         C         1.0       0.5719387057730677  0.7446467169276163  0.500752143328069  1.0000   
         C         C         1.0       0.5931062896007349  0.7376100781131867  0.4921389633848991 1.0000   
         C         C         1.0       0.6090739993327194  0.7347507605207032  0.5123716566642652 1.0000   
         C         C         1.0       0.6043167506491399  0.7363540550500953  0.5398860938600358 1.0000   
         C         C         1.0       0.5820668970913018  0.7423634275841029  0.5480670459837003 1.0000   
         C         C         1.0       0.5968846755541091  0.7267938320611745  0.46228474797687996          1.0000   
         C         C         1.0       0.5828590077782948  0.6558029873723068  0.4881154078206306 1.0000   
         C         C         1.0       0.5659460492483999  0.668724950272919   0.47905954228143743          1.0000   
         C         C         1.0       0.570659731992986   0.6911446302433305  0.47032118436702774          1.0000   
         C         C         1.0       0.592379042099682   0.7005367621592617  0.4695400386755686 1.0000   
         C         C         1.0       0.6091581300239165  0.6873118521301878  0.4807341692800555 1.0000   
         C         C         1.0       0.6049954620779943  0.6650729964976579  0.488235108862694  1.0000   
         C         C         1.0       0.6219944084199329  0.7313825410597397  0.44879712919380377          1.0000   
         C         C         1.0       0.6355732835308269  0.7505291143374099  0.45429445950297004          1.0000   
         C         C         1.0       0.6553321306247527  0.7554951386754262  0.4394359268730119 1.0000   
         C         C         1.0       0.6626283896914942  0.740021421726785   0.41913353803262804          1.0000   
         C         C         1.0       0.6492538642966333  0.7203293898783074  0.4146404587911117 1.0000   
         C         C         1.0       0.6297576597319346  0.7160954466397792  0.42998790560659256          1.0000   
         C         C         1.0       0.5681039379489506  0.7258506671292648  0.42072336151922124          1.0000   
         C         C         1.0       0.5530119426810333  0.7364356460534274  0.40323226648488747          1.0000   
         C         C         1.0       0.5540776435767535  0.7603676414953892  0.4005197238524098 1.0000   
         C         C         1.0       0.5673106248718429  0.7731067997455845  0.41823655094452633          1.0000   
         C         C         1.0       0.5794380089789438  0.762353450672317   0.43917684540215374          1.0000   
         C         C         1.0       0.5794103902107733  0.7377871375230097  0.4412332876124597 1.0000   
         H         H         1.0       0.5395994956184692  0.7686614375591182  0.12941312227248483          1.0000   
         H         H         1.0       0.538792200631271   0.7172679078103509  0.5482125384324865 1.0000   
         H         H         1.0       0.49919354901620033           0.7087663415582042 0.5627703166268364 1.0000   
         H         H         1.0       0.4992862053692591  0.757844742264874   0.13552078416940813          1.0000   
         H         H         1.0       0.5745658382752658  0.6973353125048879  0.5496020933748956 1.0000   
         H         H         1.0       0.5866716392016322  0.6590245954793152  0.5638091837665994 1.0000   
         H         H         1.0       0.6088596492508977  0.7145268696304015  0.14393329019145742          1.0000   
         H         H         1.0       0.5883944687275426  0.7493888533661087  0.13320205104426028          1.0000   
         H         H         1.0       0.5502049364652861  0.7561470056729394  0.5342327772760476 1.0000   
         H         H         1.0       0.5595782620255735  0.745795168793264   0.4858951933865163 1.0000   
         H         H         1.0       0.6269584250103842  0.7312859232382934  0.5068596667700418 1.0000   
         H         H         1.0       0.6175269441324426  0.732614074877875   0.5532253905859593 1.0000   
         H         H         1.0       0.548047268301306   0.6627344557161907  0.47777166641549873          1.0000   
         H         H         1.0       0.5567249344182005  0.7010955213342244  0.46557576209947343          1.0000   
         H         H         1.0       0.6256550907634753  0.6954895781449182  0.481091481225103  1.0000   
         H         H         1.0       0.6176004778782822  0.6541353316704279  0.4959909763420587 1.0000   
         H         H         1.0       0.6299906796251781  0.7625494747476464  0.4700395098054772 1.0000   
         H         H         1.0       0.6644096480210554  0.7719334587814011  0.4433136874340465 1.0000   
         H         H         1.0       0.6537881606251905  0.7093179460397836  0.39789329750088004          1.0000   
         H         H         1.0       0.6195625130633836  0.7018823599859435  0.422402798992117  1.0000   
         H         H         1.0       0.5708806702082185  0.7071358110528311  0.41969229847714445          1.0000   
         H         H         1.0       0.5450998361952245  0.7259242214483602  0.388841715833825  1.0000   
         H         H         1.0       0.568393961257154   0.7916272890785999  0.41455230498054313          1.0000   
         H         H         1.0       0.5865480819878547  0.7736633332930645  0.45412470494841983          1.0000   
         C         C         1.0       0.05304444926190686           0.5673299267601796 0.24844209924500216          1.0000   
         C         C         1.0       0.06949662147575697           0.5502422715790264 0.2468641839674337 1.0000   
         C         C         1.0       0.06405258689002838           0.5278630516519537 0.25485679042642306          1.0000   
         C         C         1.0       0.042256586122853435          0.5230712015192227 0.2639973329553009 1.0000   
         C         C         1.0       0.026676884529293284          0.5409149855646846 0.26396949136704795          1.0000   
         C         C         1.0       0.032072894243830856          0.5627218248294785 0.258042250635018  1.0000   
         H         H         1.0       0.08632743540097132           0.5535729083079127 0.2385562901566539 1.0000   
         H         H         1.0       0.07824378622912075           0.5146445732775337 0.2531621759970686 1.0000   
         H         H         1.0       0.008847225476447784          0.538421405336992  0.26859074067830774          1.0000   
         H         H         1.0       0.019182434192011485          0.576390479724314  0.2608914295613558 1.0000   
         C         C         1.0       0.003928481798558314          0.5054687792283569 0.30551018629979065          1.0000   
         C         C         1.0       0.009960950931998447          0.4928232881181916 0.2819215280098439 1.0000   
         C         C         1.0       0.9947342331359511  0.47588663150601507           0.2712759960422316 1.0000   
         C         C         1.0       0.9746823770922272  0.4708371916662185  0.2831338557999815 1.0000   
         C         C         1.0       0.967106936737866   0.48405281228437463           0.3043408351341646 1.0000   
         C         C         1.0       0.9815878667113564  0.5010288622278991  0.31517632680280616          1.0000   
         C         C         1.0       0.034638901842988234          0.49667592021727447          0.26791499602961855          1.0000   
         C         C         1.0       0.050854987547404425          0.4834536000168553 0.2898640573610861 1.0000   
         C         C         1.0       0.047997565520751406          0.45983375819908917          0.29157309156185873          1.0000   
         C         C         1.0       0.061673376225548804          0.44780732691396996          0.30807410090732185          1.0000   
         C         C         1.0       0.08032161816924029           0.4584602325993989 0.3213153085537213 1.0000   
         C         C         1.0       0.08248060977291928           0.48137912970837765          0.3205504766377807 1.0000   
         C         C         1.0       0.06812394707777936           0.4939873188716671 0.30576217739146305          1.0000   
         C         C         1.0       0.01895780968154015           0.4978596807655906 0.2178939348362359 1.0000   
         C         C         1.0       0.01595211610345393           0.48830654258232586          0.19202607644561936          1.0000   
         C         C         1.0       0.030356649042956093          0.4702992719681468 0.18324484227750726          1.0000   
         C         C         1.0       0.04658484980588584           0.4628760965713234 0.2002741400670839 1.0000   
         C         C         1.0       0.047897664207062755          0.47062516821450484          0.2263447156575098 1.0000   
         C         C         1.0       0.03280087680330012           0.48718796056410557          0.23671129985225597          1.0000   
         C         C         1.0       0.032007443127223256          0.46111874928556434          0.15219395471787103          1.0000   
         C         C         1.0       0.9708205176074608  0.48094907109102714           0.1109165314352989 1.0000   
         C         C         1.0       0.9916215158629029  0.48787225962789144           0.10025699553562863          1.0000   
         C         C         1.0       0.010384083108382125          0.4796463426066665 0.1116217193381502 1.0000   
         C         C         1.0       0.009678095942098563          0.46765378488427617          0.13584456049667595          1.0000   
         C         C         1.0       0.9885167732234154  0.46138408445607043           0.14593274350797275          1.0000   
         C         C         1.0       0.9692834123046784  0.4685397556198793  0.13402513072684555          1.0000   
         C         C         1.0       0.02873037433025427           0.43413255808372553          0.1483162367359559 1.0000   
         C         C         1.0       0.023681788611572552          0.419972639263065  0.16966817805557172          1.0000   
         C         C         1.0       0.019675873166680402          0.3965943147270118 0.16540587435356063          1.0000   
         C         C         1.0       0.021996741468153003          0.38655313083631127          0.1395431056620644 1.0000   
         C         C         1.0       0.027910226405704508          0.4010044755386037 0.11938567979798972          1.0000   
         C         C         1.0       0.03120530327367721           0.4242973536451926 0.12288262496134982          1.0000   
         C         C         1.0       0.07559632936125858           0.45559314055987077          0.1403640251856879 1.0000   
         C         C         1.0       0.09781412835672335           0.4645216554283985 0.13802486291067714          1.0000   
         C         C         1.0       0.1014161638470464  0.48785831410525526           0.1345503566013213 1.0000   
         C         C         1.0       0.08248806728273682           0.5016155076224926 0.13701204693595914          1.0000   
         C         C         1.0       0.06026695996810577           0.4928110420616747 0.13939063276002245          1.0000   
         C         C         1.0       0.05597639930966782           0.4693749285297966 0.1414718472540796 1.0000   
         H         H         1.0       0.01374744704191766           0.5198485805597617 0.3150638122430906 1.0000   
         H         H         1.0       0.9969246396813298  0.46691344487442177           0.2534869581595847 1.0000   
         H         H         1.0       0.9638365043323728  0.4592223016253075  0.27146260125063965          1.0000   
         H         H         1.0       0.9753590410843591  0.5118522207792728  0.332814781295233  1.0000   
         H         H         1.0       0.03366423675982988           0.4512871369222889 0.282351994673383  1.0000   
         H         H         1.0       0.058713167917418874          0.4295803960337977 0.30548615099171267          1.0000   
         H         H         1.0       0.09403305495148889           0.4900585441705097 0.33409069175978723          1.0000   
         H         H         1.0       0.07269989336304143           0.5132994035283426 0.30773353936043857          1.0000   
         H         H         1.0       0.00841946472174393           0.512008924846423  0.22464063122378974          1.0000   
         H         H         1.0       0.0037164468514438997         0.4943500734970578 0.17811591085679498          1.0000   
         H         H         1.0       0.05879703130141504           0.4512187544199295 0.19336516633586198          1.0000   
         H         H         1.0       0.061139858434422586          0.46321884786735956          0.2384260041503429 1.0000   
         H         H         1.0       0.9908968349174526  0.500241667349964   0.08341575623131768          1.0000   
         H         H         1.0       0.02659727885662999           0.48524912598040876          0.10252743851018419          1.0000   
         H         H         1.0       0.9854200211807949  0.4528845501680434  0.16498288279615864          1.0000   
         H         H         1.0       0.954027588940468   0.46054284302743953           0.1415081484168985 1.0000   
         H         H         1.0       0.021617355627162826          0.42722896838645025          0.18967423808182948          1.0000   
         H         H         1.0       0.014403748052332466          0.38708491723761307          0.18223911696048112          1.0000   
         H         H         1.0       0.029823678646804908          0.3944136254155731 0.09881103215158583          1.0000   
         H         H         1.0       0.0365087595079896  0.4342750426878095  0.10565007782299438          1.0000   
         H         H         1.0       0.07420837455000823           0.43721016550617114          0.1424710704610748 1.0000   
         H         H         1.0       0.11151229701252202           0.45295956782396796          0.1377419230894124 1.0000   
         H         H         1.0       0.08351244948046574           0.520372171736979  0.13374285465853192          1.0000   
         H         H         1.0       0.047218837010421615          0.5044694054938639 0.14378860591615322          1.0000   
         C         C         1.0       0.05960771097143796           0.5438285360978165 0.5018585770355332 1.0000   
         C         C         1.0       0.0737443091787719  0.5280309340829769  0.4906632724806601 1.0000   
         C         C         1.0       0.0721707301064481  0.5056502525320635  0.4983175456376615 1.0000   
         C         C         1.0       0.05398974474593841           0.4977760694376871 0.5144531832815971 1.0000   
         C         C         1.0       0.03827931662786276           0.5150079752644673 0.5226674375174213 1.0000   
         C         C         1.0       0.040866688817196684          0.5376991488595544 0.5175536686538786 1.0000   
         H         H         1.0       0.08742415139857317           0.5335990844413399 0.4765852164864902 1.0000   
         H         H         1.0       0.08522824794647695           0.4935994485130189 0.49041828871419557          1.0000   
         H         H         1.0       0.02390570213614906           0.5090240089875231 0.5360956072433042 1.0000   
         H         H         1.0       0.02772127239120636           0.5488945884818046 0.5262313936141021 1.0000   
         C         C         1.0       0.023092359331357004          0.45216749316970806          0.5574349645608608 1.0000   
         C         C         1.0       0.026365899515068625          0.4655883832432987 0.5344485494004807 1.0000   
         C         C         1.0       0.007179257802585769          0.4694849229677553 0.5185419811458991 1.0000   
         C         C         1.0       0.9856628919630495  0.4646076733924872  0.5283424410829479 1.0000   
         C         C         1.0       0.9823174984132916  0.4524074732325435  0.5510182294565066 1.0000   
         C         C         1.0       0.0010241330963864925         0.44475055634869254          0.565638947341829  1.0000   
         C         C         1.0       0.051645958176667874          0.4718464537228314 0.5249863329345866 1.0000   
         C         C         1.0       0.11139298216530151           0.4764915168573553 0.03362256903586225          1.0000   
         C         C         1.0       0.09136509026732331           0.4614909593670626 0.5480214015174861 1.0000   
         C         C         1.0       0.1259955754308344  0.45996856972156536           0.07405488914845065          1.0000   
         C         C         1.0       0.13256141929853227           0.4801196960031197 0.08408028835221272          1.0000   
         C         C         1.0       0.130157418012064   0.49890185430021594           0.06762662241659163          1.0000   
         C         C         1.0       0.1202983652539571  0.4973076560860155  0.04318927014598418          1.0000   
         C         C         1.0       0.056746426950806034          0.4567937969577356 0.4755461520593228 1.0000   
         C         C         1.0       0.05458540119835278           0.44039115559385017          0.4557506504352893 1.0000   
         C         C         1.0       0.05130959018169201           0.41813093007967156          0.46163329770252315          1.0000   
         C         C         1.0       0.05207566084179027           0.4119751116010285 0.48871911840615856          1.0000   
         C         C         1.0       0.05461674094310398           0.42918660939040415          0.5094975976887158 1.0000   
         C         C         1.0       0.05630977873209128           0.4524028425722595 0.5027300436184797 1.0000   
         C         C         1.0       0.04544756362146152           0.40086603588264025          0.4372519117364257 1.0000   
         C         C         1.0       0.9755166257441221  0.42890721351964695           0.43065498100695115          1.0000   
         C         C         1.0       0.9921294304543479  0.43301670110413326           0.4113144800531045 1.0000   
         C         C         1.0       0.014173174279013434          0.42409386540101285          0.41302269503192796          1.0000   
         C         C         1.0       0.019304194001761532          0.4089043982794106 0.4334526185677775 1.0000   
         C         C         1.0       0.0020958318203989634         0.40322069099963465          0.4517871913953455 1.0000   
         C         C         1.0       0.9815294947251764  0.4135102884144978  0.4506710517371583 1.0000   
         C         C         1.0       0.04748645392567674           0.3743880124418174 0.44405529980015573          1.0000   
         C         C         1.0       0.06744417412409542           0.36602272056453733          0.45554969823646374          1.0000   
         C         C         1.0       0.07074910493178765           0.3431001841886598 0.45708377751745966          1.0000   
         C         C         1.0       0.0553539124668283  0.32721180928084376           0.4471637864267768 1.0000   
         C         C         1.0       0.035940151513968344          0.3347234039537668 0.4347763419325409 1.0000   
         C         C         1.0       0.03196661098317821           0.35854950455439105          0.4327696713671615 1.0000   
         C         C         1.0       0.05257905280078656           0.39648369110918524          0.38424599129325193          1.0000   
         C         C         1.0       0.06430820917032576           0.4020716657821655 0.3613973732291342 1.0000   
         C         C         1.0       0.08558494473071794           0.4114509268517724 0.3633067579304931 1.0000   
         C         C         1.0       0.09508905566206842           0.41652524170765526          0.38869133417704443          1.0000   
         C         C         1.0       0.08287330882265748           0.41211027990064353          0.4114630846528947 1.0000   
         C         C         1.0       0.06123080749445853           0.4025219933463675 0.41001002019093324          1.0000   
         H         H         1.0       0.07129958871305853           0.486804049518066  0.04666249910556908          1.0000   
         H         H         1.0       0.010788119286710971          0.4777751084911649 0.4982730184614253 1.0000   
         H         H         1.0       0.9709266235101492  0.4683134569160442  0.5173284139340697 1.0000   
         H         H         1.0       0.039189226223647955          0.5106799999793444 0.05066540440860989          1.0000   
         H         H         1.0       0.09572847611582498           0.4504793240318388 0.531829800497272  1.0000   
         H         H         1.0       0.1277047205555104  0.4453838975886997  0.08676599632740048          1.0000   
         H         H         1.0       0.13609110189835086           0.5159305958553497 0.07392218650016706          1.0000   
         H         H         1.0       0.12234284875894766           0.51287957079607   0.03142714067351138          1.0000   
         H         H         1.0       0.05351642343295315           0.4741840242715651 0.46992889308612606          1.0000   
         H         H         1.0       0.056324927114187746          0.44555707620962454          0.4351212991272973 1.0000   
         H         H         1.0       0.04870662288080041           0.394546205426618  0.4940257633752014 1.0000   
         H         H         1.0       0.05400451871171574           0.42411877257889335          0.5319032959540891 1.0000   
         H         H         1.0       0.9905141835741561  0.4465597063454596  0.3982440111781712 1.0000   
         H         H         1.0       0.026387292037884258          0.4323632099113212 0.4001058482031137 1.0000   
         H         H         1.0       0.006162341894900614          0.39119429305002096          0.46833547366141   1.0000   
         H         H         1.0       0.9697822913895426  0.4107454045282568  0.46728263232829637          1.0000   
         H         H         1.0       0.08085815799721652           0.37794990049967203          0.46505289262135824          1.0000   
         H         H         1.0       0.08843536914099581           0.33874030532407645          0.4639209682349908 1.0000   
         H         H         1.0       0.02540610479349814           0.3231361408004352 0.42386620639582706          1.0000   
         H         H         1.0       0.016969644263983286          0.3641044228504057 0.42132553458259936          1.0000   
         H         H         1.0       0.035142118691677604          0.389056420382857  0.38329679838679637          1.0000   
         H         H         1.0       0.054714545214087584          0.3980268204491343 0.34261654996333635          1.0000   
         H         H         1.0       0.11082055576163637           0.42577210084299555          0.38842856155058314          1.0000   
         H         H         1.0       0.09103695989614195           0.4153429723066452 0.4309274955957344 1.0000   
         C         C         1.0       0.9497779204558571  0.6432470346698846  0.21498254946538906          1.0000   
         C         C         1.0       0.9713166199947078  0.6491982546324284  0.2037627523130516 1.0000   
         C         C         1.0       0.9806111218172031  0.6343914355192573  0.1852344378008148 1.0000   
         C         C         1.0       0.9678471061112285  0.6162558636962812  0.17439147547698758          1.0000   
         C         C         1.0       0.9462642221048765  0.6107724336351146  0.18456343404818573          1.0000   
         C         C         1.0       0.9372791263756577  0.6237099846917631  0.20463124408689076          1.0000   
         H         H         1.0       0.981004900341164   0.6654295861472337  0.20723943018365884          1.0000   
         H         H         1.0       0.9968261464638499  0.6371537798954552  0.17715850728995108          1.0000   
         H         H         1.0       0.934782276455938   0.5974492441259353  0.17575127012330635          1.0000   
         H         H         1.0       0.9202862357501094  0.6199952571127927  0.21026685553628746          1.0000   
         C         C         1.0       0.962003815307061   0.5597982901657258  0.16548802884656982          1.0000   
         C         C         1.0       0.970840745152636   0.5745736989185436  0.14542904742838592          1.0000   
         C         C         1.0       0.972174121680416   0.5652456826828554  0.11946172646649368          1.0000   
         C         C         1.0       0.9639016491693354  0.5434159886617015  0.11314527195340307          1.0000   
         C         C         1.0       0.9535406398206794  0.5300321951251977  0.1330757630714199 1.0000   
         C         C         1.0       0.9538535894860893  0.5381832057885577  0.1594374427824806 1.0000   
         C         C         1.0       0.9763112098645408  0.6017743988779063  0.1502856766461587 1.0000   
         C         C         1.0       0.0036344723413337388         0.5979096560823302 0.15100624619441239          1.0000   
         C         C         1.0       0.017112579853646448          0.5991733828031087 0.1283701997566907 1.0000   
         C         C         1.0       0.03923469454090123           0.5924296680718065 0.12884370901220848          1.0000   
         C         C         1.0       0.04859256808201695           0.581459463450378  0.1503000489891689 1.0000   
         C         C         1.0       0.03583689593633377           0.581242373686201  0.17428720850131815          1.0000   
         C         C         1.0       0.013888319462391996          0.5885441295248314 0.17486884031743988          1.0000   
         C         C         1.0       0.9455583048381946  0.6125051616172088  0.11534783331012263          1.0000   
         C         C         1.0       0.9392755281141322  0.6199346515124327  0.09016937929314113          1.0000   
         C         C         1.0       0.9540309031337594  0.6329925769565161  0.07433592864486267          1.0000   
         C         C         1.0       0.9724437493929073  0.6427675584074641  0.08835793871119285          1.0000   
         C         C         1.0       0.9782528531244661  0.6353699383173045  0.1148751820449846 1.0000   
         C         C         1.0       0.9668546546652876  0.6172936777830513  0.1265407592103346 1.0000   
         C         C         1.0       0.946156419614401   0.5592734129020581  0.5827934608079677 1.0000   
         C         C         1.0       0.9536189668191282  0.485299062240438   0.5916341616845016 1.0000   
         C         C         1.0       0.9325756177121212  0.495099517045243   0.5911164732296944 1.0000   
         C         C         1.0       0.930892426008419   0.518062062131873   0.5864116928132524 1.0000   
         C         C         1.0       0.9503224745251097  0.5322562696716869  0.5845438214789144 1.0000   
         C         C         1.0       0.9711279478340135  0.5221588811750293  0.5874773862489975 1.0000   
         C         C         1.0       0.9724374431716944  0.4992269939285727  0.5905070049349997 1.0000   
         C         C         1.0       0.9657751901854786  0.5747499358773409  0.5675409364114495 1.0000   
         C         C         1.0       0.9689609782354188  0.5986128980436429  0.573940506928635  1.0000   
         C         C         1.0       0.9852287182863557  0.6118169487861053  0.5600829347770205 1.0000   
         C         C         1.0       0.9963997775696557  0.6025869066049542  0.5377076813757125 1.0000   
         C         C         1.0       0.9933235721563426  0.5782429709742315  0.5318386694176946 1.0000   
         C         C         1.0       0.9785076361200115  0.5656819032866873  0.5470544357474328 1.0000   
         C         C         1.0       0.9201895896533737  0.5550663075287862  0.5406392738178641 1.0000   
         C         C         1.0       0.902768979924634   0.5615413576593681  0.5245258449742519 1.0000   
         C         C         1.0       0.8890883299662655  0.5799696849590451  0.5321573301707119 1.0000   
         C         C         1.0       0.8952345138540998  0.5930169117337565  0.5540224383099641 1.0000   
         C         C         1.0       0.9123565298333921  0.5867806323139018  0.5707316438350301 1.0000   
         C         C         1.0       0.9247409729364015  0.5668304952015408  0.5654804846481377 1.0000   
         H         H         1.0       0.9582279165835438  0.5660420792972356  0.1867256364283687 1.0000   
         H         H         1.0       0.978075111825171   0.5737376806695483  0.10250546335290647          1.0000   
         H         H         1.0       0.9644684561097189  0.538279904898162   0.0911572515614837 1.0000   
         H         H         1.0       0.945210373084142   0.5289778178538916  0.17611902708448582          1.0000   
         H         H         1.0       0.009788760912129657          0.6040619732253447 0.1082781400911694 1.0000   
         H         H         1.0       0.04979170702292324           0.5935166665072075 0.11089835713205114          1.0000   
         H         H         1.0       0.04126610114470797           0.5735530736007826 0.19289003529467735          1.0000   
         H         H         1.0       0.004860342574171117          0.5874195762149574 0.19341179144947532          1.0000   
         H         H         1.0       0.9359158171934919  0.5982705614682111  0.12358030930653154          1.0000   
         H         H         1.0       0.9237144795141197  0.6112676549254644  0.08252791278991353          1.0000   
         H         H         1.0       0.9853690157250647  0.6522816795408054  0.07844441108465147          1.0000   
         H         H         1.0       0.9946197490568685  0.6407213981340172  0.12231902590145168          1.0000   
         H         H         1.0       0.9173089358606946  0.4853993885670595  0.5935219862794324 1.0000   
         H         H         1.0       0.9147097828232817  0.525333007172938   0.5835930662712632 1.0000   
         H         H         1.0       0.9861780081651903  0.5329525998698726  0.5893768001114771 1.0000   
         H         H         1.0       0.9888488839297853  0.49138957113922266           0.5899828947143    1.0000   
         H         H         1.0       0.9563229403080277  0.6059417986823773  0.5898393799534649 1.0000   
         H         H         1.0       0.9859637120387842  0.6296078644279959  0.5641352185411401 1.0000   
         H         H         1.0       0.0017759895665736547         0.5705527405327028 0.5134246971295242 1.0000   
         H         H         1.0       0.9782496764418578  0.5468618300087095  0.5433552748713532 1.0000   
         H         H         1.0       0.932832994249893   0.5433068451843837  0.5348710146796727 1.0000   
         H         H         1.0       0.8975026950204739  0.5536739551639995  0.5046451566007849 1.0000   
         H         H         1.0       0.8774487048529299  0.6357234288786073  0.029497857585702336         1.0000   
         H         H         1.0       0.9115555470038609  0.6429750348000035  0.05458807800468679          1.0000   
         C         C         1.0       0.004096442992491012          0.6106752617622119 0.47054431230927274          1.0000   
         C         C         1.0       0.021943419369632622          0.6051643344441701 0.4532550917011721 1.0000   
         C         C         1.0       0.020345336017577598          0.5872326091059151 0.434015599038069  1.0000   
         C         C         1.0       0.0010531686889001524         0.5735151955752799 0.4323441653711786 1.0000   
         C         C         1.0       0.9833668495223258  0.5798561119382245  0.45012716844931433          1.0000   
         C         C         1.0       0.984508367033482   0.5981545928084178  0.4688835496068956 1.0000   
         H         H         1.0       0.03784325225877572           0.6142111972883255 0.45593710710043966          1.0000   
         H         H         1.0       0.03476599313917794           0.5841199545813504 0.42082285239271056          1.0000   
         H         H         1.0       0.9665377208888026  0.5708982459658736  0.45111404348597745          1.0000   
         H         H         1.0       0.9705714684320512  0.6026609761943282  0.4816829541595366 1.0000   
         C         C         1.0       0.9900169929151341  0.5226249921634398  0.4520584377348544 1.0000   
         C         C         1.0       0.9894255624726204  0.5286053139825329  0.42448060069659255          1.0000   
         C         C         1.0       0.9819211171227509  0.5120296711119903  0.405922381496371  1.0000   
         C         C         1.0       0.9719703715680502  0.4916314571890532  0.4147758913012277 1.0000   
         C         C         1.0       0.9709948374495171  0.4872673531515427  0.4419445226508572 1.0000   
         C         C         1.0       0.9806324950281635  0.5019634645612674  0.4603826055272237 1.0000   
         C         C         1.0       0.996835550287964   0.5527498420276046  0.4113134334463374 1.0000   
         C         C         1.0       0.020172154661937336          0.5428672849103969 0.39905139513169235          1.0000   
         C         C         1.0       0.025687928981012575          0.541952749793575  0.3716529525147785 1.0000   
         C         C         1.0       0.047384999567606556          0.5362508377563294 0.36259445497437204          1.0000   
         C         C         1.0       0.06391896185834667           0.5312525535754354 0.3810044641865492 1.0000   
         C         C         1.0       0.059243367884297626          0.5315011946568953 0.4078249374723637 1.0000   
         C         C         1.0       0.037153589004479404          0.5364264710786756 0.41656698415349613          1.0000   
         C         C         1.0       0.9555604152325107  0.5571695499671513  0.39591575061415624          1.0000   
         C         C         1.0       0.9393432144159174  0.5660643015616574  0.3797914372951268 1.0000   
         C         C         1.0       0.9439308173388051  0.5793521762769369  0.3579066972497294 1.0000   
         C         C         1.0       0.9668230747442279  0.5832687069645653  0.35190789064828   1.0000   
         C         C         1.0       0.9840237139541501  0.5751632842429601  0.3682366210329005 1.0000   
         C         C         1.0       0.9781694933186569  0.5610655239814961  0.39103335844668685          1.0000   
         C         C         1.0       0.9242075684022326  0.5866655809284298  0.3374762415755991 1.0000   
         C         C         1.0       0.9213629084123668  0.5155055416559577  0.3046254299377182 1.0000   
         C         C         1.0       0.9063784854491713  0.5222721569400444  0.32459108130285247          1.0000   
         C         C         1.0       0.9074861409600288  0.5442571535624174  0.33520182957227296          1.0000   
         C         C         1.0       0.9212360589277597  0.5615724163948365  0.324309528598113  1.0000   
         C         C         1.0       0.9333300600223677  0.5545112120123341  0.3013387241680867 1.0000   
         C         C         1.0       0.9337066466799849  0.5321685741911779  0.2921404221964349 1.0000   
         C         C         1.0       0.9276435373079743  0.6076726382594649  0.3169028494567157 1.0000   
         C         C         1.0       0.9410136014929401  0.627021004665148   0.3243511396210399 1.0000   
         C         C         1.0       0.9417562745268249  0.6463367836384317  0.3082427858663136 1.0000   
         C         C         1.0       0.9341103626264242  0.6439961988345749  0.2807595301793172 1.0000   
         C         C         1.0       0.9196856631213096  0.6260244693272913  0.2742952552250341 1.0000   
         C         C         1.0       0.9159693798514242  0.608611656931901   0.291921667987458  1.0000   
         C         C         1.0       0.8799469093926354  0.593223120472729   0.34225884609347457          1.0000   
         C         C         1.0       0.8611750640032199  0.5989490570947815  0.35710027524393856          1.0000   
         C         C         1.0       0.8627144788760507  0.6084982784656886  0.3832978280860738 1.0000   
         C         C         1.0       0.8848152234281166  0.6134260736404447  0.3927552684974253 1.0000   
         C         C         1.0       0.9038892507736034  0.6082214499301047  0.3771506360559021 1.0000   
         C         C         1.0       0.902132797504226   0.5957221680895582  0.3528697025797495 1.0000   
         H         H         1.0       0.9982778831371043  0.534331177818056   0.46747414848118674          1.0000   
         H         H         1.0       0.9826003711154306  0.5161099958941596  0.3842492247474618 1.0000   
         H         H         1.0       0.965855937981807   0.47994855466385594           0.39992541960105704          1.0000   
         H         H         1.0       0.9799009555206926  0.4978557109826978  0.48153920339756184          1.0000   
         H         H         1.0       0.012857883814174409          0.5461781728461017 0.3563043605132669 1.0000   
         H         H         1.0       0.051397022370844425          0.5379175289528325 0.3412894314088866 1.0000   
         H         H         1.0       0.07259499038427819           0.5280953005179304 0.42184132017535236          1.0000   
         H         H         1.0       0.03442339956666607           0.5355926824735062 0.43845696902142123          1.0000   
         H         H         1.0       0.9503175601740863  0.5473490315871283  0.4121052253254844 1.0000   
         H         H         1.0       0.9228689376879963  0.5597727420776053  0.38404583103945245          1.0000   
         H         H         1.0       0.9730175256051179  0.5937415191730908  0.33463363263949625          1.0000   
         H         H         1.0       0.0012411369676121886         0.5820884553968059 0.3659767881946537 1.0000   
         H         H         1.0       0.8943334943023925  0.5092917748160336  0.3329156259191116 1.0000   
         H         H         1.0       0.8964774328748318  0.5484666165069807  0.35159741925714   1.0000   
         H         H         1.0       0.9441724304594384  0.5667245107745202  0.2905023791987458 1.0000   
         H         H         1.0       0.9434790311914367  0.5277588768355539  0.2748771103457052 1.0000   
         H         H         1.0       0.9512844238914864  0.6280903292005401  0.3427894427285475 1.0000   
         H         H         1.0       0.9485296540957304  0.662614709743462   0.31594965992720775          1.0000   
         H         H         1.0       0.9089317359770254  0.6251262540423491  0.255251752453676  1.0000   
         H         H         1.0       0.903850068906798   0.5952112767985412  0.286789250520402  1.0000   
         H         H         1.0       0.876046722086468   0.5841497561907544  0.32315389540085393          1.0000   
         H         H         1.0       0.8433649869233157  0.5956744684199051  0.34923067565176247          1.0000   
         H         H         1.0       0.8882213998919536  0.6228956882800707  0.41065846194601   1.0000   
         H         H         1.0       0.9210938815548776  0.6105596101756711  0.3854209326271118 1.0000   
         C         C         1.0       0.09633830152710718           0.609463132875507  0.2664663465769478 1.0000   
         C         C         1.0       0.1119844574111855  0.5916940498981649  0.2676148823852358 1.0000   
         C         C         1.0       0.1346636740549826  0.5965011558668791  0.2631260910938842 1.0000   
         C         C         1.0       0.14366584219322265           0.6182727515674967 0.2582024217354358 1.0000   
         C         C         1.0       0.12743515231732291           0.6356240975615765 0.2567648355297391 1.0000   
         C         C         1.0       0.10483383993511344           0.6309605582015528 0.2608702253872489 1.0000   
         H         H         1.0       0.10671079908120876           0.5746333611374057 0.27049026653270203          1.0000   
         H         H         1.0       0.14799555915363666           0.5831504227743814 0.26515435212595057          1.0000   
         H         H         1.0       0.1332993898569231  0.6526394089823833  0.25036438738816574          1.0000   
         H         H         1.0       0.09263769360769948           0.6449119245211126 0.25686775765993164          1.0000   
         C         C         1.0       0.17430342663570023           0.6589529483240688 0.21940324079192186          1.0000   
         C         C         1.0       0.17550221937825664           0.6484909655264627 0.2439473686148171 1.0000   
         C         C         1.0       0.1769005138762737  0.6625533841232523  0.2671091412265693 1.0000   
         C         C         1.0       0.17981509614140556           0.6860016950700358 0.2661126065553541 1.0000   
         C         C         1.0       0.17716556855529098           0.6963254056537359 0.2412317740117679 1.0000   
         C         C         1.0       0.1759033386824847  0.6829375189453408  0.2179125122041135 1.0000   
         C         C         1.0       0.17001743430054225           0.6217043747145219 0.24975389128543748          1.0000   
         C         C         1.0       0.17413687573793493           0.6047271904593482 0.22285367594202857          1.0000   
         C         C         1.0       0.187834592337897   0.5854612477867891  0.2220233858558403 1.0000   
         C         C         1.0       0.1864943352164685  0.5680554360708323  0.2026627294116063 1.0000   
         C         C         1.0       0.16822834729065003           0.5692486024577985 0.1846881759435608 1.0000   
         C         C         1.0       0.1538969863995505  0.5886153394987957  0.185020275733387  1.0000   
         C         C         1.0       0.1593216960267524  0.6066679969858705  0.20121022963718263          1.0000   
         C         C         1.0       0.18357134589045784           0.6036866451940915 0.29684761315023395          1.0000   
         C         C         1.0       0.20035361490855555           0.6034214002790473 0.3163417027070095 1.0000   
         C         C         1.0       0.22176238180726943           0.6131175885621509 0.3129072205906133 1.0000   
         C         C         1.0       0.22732628963412996           0.618998964046315  0.2870130787320541 1.0000   
         C         C         1.0       0.21125691887959364           0.6204437271485372 0.2676949955383897 1.0000   
         C         C         1.0       0.1881142472526349  0.6152422417401154  0.2730015154361111 1.0000   
         C         C         1.0       0.2369545801517358  0.6189504323109137  0.3390908261598193 1.0000   
         C         C         1.0       0.1996089008039969  0.6801838096213252  0.3581512604308626 1.0000   
         C         C         1.0       0.19357183229294403           0.6605106777697906 0.3700878253915381 1.0000   
         C         C         1.0       0.20775026408853697           0.6418341379384406 0.3655557938086193 1.0000   
         C         C         1.0       0.2255810449178609  0.6418115267409775  0.3478958101420012 1.0000   
         C         C         1.0       0.23076601624318585           0.6631501677750624 0.3346854512005485 1.0000   
         C         C         1.0       0.2179017183149453  0.6818963359192227  0.3415366165517825 1.0000   
         C         C         1.0       0.26451026141736655           0.622025544352662  0.336194264649911  1.0000   
         C         C         1.0       0.2775902111020716  0.606905800586096   0.32130508542570024          1.0000   
         C         C         1.0       0.3006610237694939  0.6054413342286495  0.32428686977150717          1.0000   
         C         C         1.0       0.3120903131981441  0.6205622691888727  0.3417566427682512 1.0000   
         C         C         1.0       0.29998880204560946           0.6358650365905935 0.3557142472982585 1.0000   
         C         C         1.0       0.276053635352528   0.6376242461395608  0.35291584791145403          1.0000   
         C         C         1.0       0.24338530900356745           0.6038136497361398 0.3881693692851126 1.0000   
         C         C         1.0       0.24536487182106054           0.5861774445777037 0.406586068690468  1.0000   
         C         C         1.0       0.2423226082574673  0.5641424638737998  0.3978963015419568 1.0000   
         C         C         1.0       0.2366769144619618  0.5583183373395769  0.37139795380673657          1.0000   
         C         C         1.0       0.23324362321585068           0.5760058816166701 0.35407815174880003          1.0000   
         C         C         1.0       0.23741037157167336           0.5993168446527335 0.36182931149535563          1.0000   
         H         H         1.0       0.17256018512828264           0.648125575448254  0.201760393285152  1.0000   
         H         H         1.0       0.17696092394576457           0.6543670962171562 0.28714261265403385          1.0000   
         H         H         1.0       0.18180219218337756           0.6960422819337886 0.2833408741070274 1.0000   
         H         H         1.0       0.17709458216507326           0.6930536885749171 0.19966038003059672          1.0000   
         H         H         1.0       0.1945362708772551  0.5810714835268594  0.2414989286812866 1.0000   
         H         H         1.0       0.19639119536369334           0.5531087004420607 0.20338610146643596          1.0000   
         H         H         1.0       0.13870609717986213           0.5878405148863702 0.17187872166001728          1.0000   
         H         H         1.0       0.1466076854937525  0.6205269413971751  0.2000480560633121 1.0000   
         H         H         1.0       0.16578216351912475           0.5979059723759546 0.3023120600491154 1.0000   
         H         H         1.0       0.19492327787623395           0.5973078030179634 0.3358872031386193 1.0000   
         H         H         1.0       0.2446820246068896  0.6245735147220864  0.28557001947161165          1.0000   
         H         H         1.0       0.21821567331370323           0.6256110909263779 0.24847432054147173          1.0000   
         H         H         1.0       0.17724687436000777           0.6574540091497143 0.3799254985093338 1.0000   
         H         H         1.0       0.20327044060473048           0.6263951905448695 0.3786161090771453 1.0000   
         H         H         1.0       0.24503585346304332           0.6644354125503527 0.3195932036110603 1.0000   
         H         H         1.0       0.22139158138756732           0.6969406635957522 0.3288854440350816 1.0000   
         H         H         1.0       0.2682992542759969  0.5948282655767496  0.30902984482726553          1.0000   
         H         H         1.0       0.3094990054643863  0.5904964136679551  0.31586545616339756          1.0000   
         H         H         1.0       0.3080497795460581  0.6488156458757625  0.3687250323673296 1.0000   
         H         H         1.0       0.2680395933482624  0.6518179013517852  0.36370339514749167          1.0000   
         H         H         1.0       0.24851156050098477           0.6205441157334377 0.3953502116172447 1.0000   
         H         H         1.0       0.25060601614288175           0.5911273451579937 0.42690940358627744          1.0000   
         H         H         1.0       0.23493488256789996           0.5410940953345739 0.36543626373229093          1.0000   
         H         H         1.0       0.22992032685391972           0.5715012629385804 0.33321933758468375          1.0000   
         C         C         1.0       0.09970497562863888           0.5896007647058972 0.5103978599559974 1.0000   
         C         C         1.0       0.115798682371475   0.5736595734246637  0.5133596352823965 1.0000   
         C         C         1.0       0.13859529674447713           0.5790250057724852 0.508783262325724  1.0000   
         C         C         1.0       0.1451556190322593  0.6008910025265876  0.500579426023081  1.0000   
         C         C         1.0       0.12783266118453948           0.6169739335942891 0.4961702274322887 1.0000   
         C         C         1.0       0.10628407689006877           0.6113087456209474 0.500318125354912  1.0000   
         H         H         1.0       0.11115750958814197           0.5553468824890759 0.5178421687395364 1.0000   
         H         H         1.0       0.15089669798660307           0.5665719991403732 0.5147010785825259 1.0000   
         H         H         1.0       0.1312801231281478  0.6340850183522585  0.4909146672438922 1.0000   
         H         H         1.0       0.09412355817005032           0.6261955715589991 0.49968087000123024          1.0000   
         C         C         1.0       0.16353429874286424           0.6334950946520534 0.45512694920445973          1.0000   
         C         C         1.0       0.17592659321990123           0.6305544529798793 0.47912052636312075          1.0000   
         C         C         1.0       0.19188883235729165           0.6475838084160642 0.4873928826934541 1.0000   
         C         C         1.0       0.19105905595692757           0.6685696063146183 0.4750521275281155 1.0000   
         C         C         1.0       0.17483493413928974           0.6726290132899492 0.456636270490626  1.0000   
         C         C         1.0       0.16236319099864888           0.6552587538414864 0.44375862681963096          1.0000   
         C         C         1.0       0.17173274407588077           0.6080817314698358 0.49669378550200993          1.0000   
         C         C         1.0       0.18473356077701614           0.5879544832065478 0.47984029134743533          1.0000   
         C         C         1.0       0.20872124585696267           0.5844484396976692 0.4845886786175515 1.0000   
         C         C         1.0       0.22173797693927427           0.5703136614279927 0.4683633623444224 1.0000   
         C         C         1.0       0.21167255040843747           0.5566750313807937 0.4487070891117208 1.0000   
         C         C         1.0       0.1876816645178019  0.5575481814011012  0.4464372973921791 1.0000   
         C         C         1.0       0.17462770058045046           0.573495329228824  0.4596721692060871 1.0000   
         C         C         1.0       0.17115555459184373           0.628355629726229  0.54480976376734   1.0000   
         C         C         1.0       0.20656939957546036           0.6272525580315916 0.051433550132635515         1.0000   
         C         C         1.0       0.2261655976691128  0.6184790112225181  0.06591402461502768          1.0000   
         C         C         1.0       0.2413698203160291  0.6055741724350334  0.05089919400191346          1.0000   
         C         C         1.0       0.18627566994728953           0.5918869890792903 0.5435305321442598 1.0000   
         C         C         1.0       0.17770467044026442           0.6097628557483262 0.5291003504763874 1.0000   
         C         C         1.0       0.22823158837511182           0.6251893463424376 0.0967646747645038 1.0000   
         C         C         1.0       0.21285815306899786           0.6981028108765488 0.11387787461270624          1.0000   
         C         C         1.0       0.21081737951837135           0.6817042015010321 0.13375578273170782          1.0000   
         C         C         1.0       0.21580789178548843           0.6593874736051341 0.1290662121621047 1.0000   
         C         C         1.0       0.22312780469419677           0.6521926368614205 0.10296772585127283          1.0000   
         C         C         1.0       0.22828743553315628           0.6690450612081031 0.08518779824111092          1.0000   
         C         C         1.0       0.2214015291089055  0.6912448735881216  0.08885533666492637          1.0000   
         C         C         1.0       0.2526529093753262  0.6237900795045037  0.11106918779857039          1.0000   
         C         C         1.0       0.2731950784584713  0.6299978115904321  0.09808901323666015          1.0000   
         C         C         1.0       0.29418140124410364           0.6288723022202145 0.11019088568137671          1.0000   
         C         C         1.0       0.2937741333863508  0.6230143416575509  0.13670313413762403          1.0000   
         C         C         1.0       0.2747967503637645  0.6204251184351334  0.15162835984970915          1.0000   
         C         C         1.0       0.25381318749278964           0.6201516315552476 0.13868358414284254          1.0000   
         C         C         1.0       0.215715052685429   0.5840632542102231  0.11193052880059921          1.0000   
         C         C         1.0       0.2009653185322845  0.5682327490636911  0.12125296257970558          1.0000   
         C         C         1.0       0.1787345898904734  0.5723490372365512  0.123838101952477  1.0000   
         C         C         1.0       0.17158783243078055           0.5945451923627084 0.117554593909076  1.0000   
         C         C         1.0       0.18690001071603904           0.6116324037935145 0.10954742139790756          1.0000   
         C         C         1.0       0.20964252700086058           0.6064938487311878 0.10707834887177685          1.0000   
         H         H         1.0       0.15542123241058572           0.6192321287234965 0.4468356931493424 1.0000   
         H         H         1.0       0.20241530038425679           0.6439590899364523 0.5044294405766135 1.0000   
         H         H         1.0       0.20265565754707363           0.6822397395083779 0.48169522784613905          1.0000   
         H         H         1.0       0.15084846183152528           0.6577652079666838 0.4273799142297676 1.0000   
         H         H         1.0       0.2168632840354111  0.5957839399493854  0.500090437951606  1.0000   
         H         H         1.0       0.23872992110734806           0.5660367498330426 0.47296721168504274          1.0000   
         H         H         1.0       0.1789746345521521  0.5479435410746175  0.43062387052897216          1.0000   
         H         H         1.0       0.15603202927844773           0.5743097265184572 0.45590355808969224          1.0000   
         H         H         1.0       0.162836680935737   0.6430944060261817  0.5351000632682872 1.0000   
         H         H         1.0       0.19216358661596813           0.6343901928245207 0.06276159900516641          1.0000   
         H         H         1.0       0.2550914639140075  0.5981850943892348  0.05932450299610135          1.0000   
         H         H         1.0       0.19094749906739908           0.574887395990704  0.5341888292596144 1.0000   
         H         H         1.0       0.2028504130064319  0.687628361983805   0.15343552469781793          1.0000   
         H         H         1.0       0.20997743345948197           0.647377311553997  0.14316405782748143          1.0000   
         H         H         1.0       0.23827475140032678           0.6659003796685132 0.06634746152271882          1.0000   
         H         H         1.0       0.22138312372946967           0.7035060031641849 0.07238109268086168          1.0000   
         H         H         1.0       0.27267673495466666           0.6331827842002024 0.07629307573792919          1.0000   
         H         H         1.0       0.31010467049917095           0.6330951523638747 0.09890039458244045          1.0000   
         H         H         1.0       0.27725223255893133           0.6196102624243345 0.17221864446124238          1.0000   
         H         H         1.0       0.23871641855027206           0.6134325448283244 0.15004629665174343          1.0000   
         H         H         1.0       0.2320856633034124  0.577860658758716   0.10758017069757123          1.0000   
         H         H         1.0       0.20714014608714973           0.5509272153195764 0.12600075538649375          1.0000   
         H         H         1.0       0.15213522293799522           0.5971895438334563 0.11767903217256279          1.0000   
         H         H         1.0       0.18069694195100827           0.6284586978817465 0.10378631182795474          1.0000   
         C         C         1.0       0.035729982917901415          0.6991836406152783 0.09143237588487   1.0000   
         C         C         1.0       0.03621544523316644           0.677852138353611  0.10402989507383133          1.0000   
         C         C         1.0       0.05519652580923062           0.6711295772072657 0.11761281423384493          1.0000   
         C         C         1.0       0.07475596921195884           0.6854484629212079 0.1174558812077334 1.0000   
         C         C         1.0       0.07466577342069419           0.7067157810948987 0.10376075877095646          1.0000   
         C         C         1.0       0.054520024295242796          0.7142645127107351 0.09368275956719908          1.0000   
         H         H         1.0       0.021741383281119075          0.6669592003626957 0.10251009725482457          1.0000   
         H         H         1.0       0.05483465991914094           0.6554561442815083 0.12765106618728117          1.0000   
         H         H         1.0       0.089218619567031   0.7184911439778444  0.10416442314643062          1.0000   
         H         H         1.0       0.053906627194574064          0.7299061643487593 0.08342657959954851          1.0000   
         C         C         1.0       0.1287314578106135  0.6892215686102771  0.10201616457974506          1.0000   
         C         C         1.0       0.12115738402279848           0.688969203203184  0.1286743898780752 1.0000   
         C         C         1.0       0.13705667409253885           0.6978809201213539 0.14879778713606037          1.0000   
         C         C         1.0       0.15597239749931371           0.7112800984642917 0.1406859394277748 1.0000   
         C         C         1.0       0.1614697952300508  0.7134786873934812  0.11441455008291211          1.0000   
         C         C         1.0       0.14823567960453746           0.7021481394714247 0.09516453345074642          1.0000   
         C         C         1.0       0.09582066136144865           0.6807392260824275 0.1387718206225379 1.0000   
         C         C         1.0       0.1002900112277115  0.6539719231145537  0.14324312134682796          1.0000   
         C         C         1.0       0.10627495380311702           0.6462063003210111 0.16776382141609267          1.0000   
         C         C         1.0       0.10412163585533829           0.6237511811666879 0.17528185544027558          1.0000   
         C         C         1.0       0.09753607905252615           0.6083893444765924 0.15593948381555092          1.0000   
         C         C         1.0       0.095659963408111   0.6150405439107889  0.1288272702576657 1.0000   
         C         C         1.0       0.09711755804049571           0.6383532717353207 0.12367400724490393          1.0000   
         C         C         1.0       0.08960419132268936           0.7203094174311147 0.1633657865843346 1.0000   
         C         C         1.0       0.08088686665223925           0.7346442041311917 0.18289831047706462          1.0000   
         C         C         1.0       0.0697072139454408  0.7254471387721544  0.205274268643269  1.0000   
         C         C         1.0       0.0678223149558442  0.7016470717769068  0.20689360675002338          1.0000   
         C         C         1.0       0.0735983863990911  0.6874248611488613  0.1846043488059069 1.0000   
         C         C         1.0       0.08739648742973134           0.6960937057830031 0.1634704084525364 1.0000   
         C         C         1.0       0.06431214462036605           0.7407739763525543 0.23110442212989962          1.0000   
         C         C         1.0       0.1379833117137968  0.7366360940986024  0.2547123349108357 1.0000   
         C         C         1.0       0.12789458862692604           0.7554529238204163 0.2412365655192041 1.0000   
         C         C         1.0       0.10519743323527043           0.7560324586715649 0.23534238277785458          1.0000   
         C         C         1.0       0.09014645751899497           0.739736359621015  0.24469972227913975          1.0000   
         C         C         1.0       0.09931069664669308           0.7208999802524616 0.25795442771090105          1.0000   
         C         C         1.0       0.12267144726801114           0.7202349749283162 0.26458258798531187          1.0000   
         C         C         1.0       0.04347538338220103           0.7298399110636867 0.24836524805206925          1.0000   
         C         C         1.0       0.024165343678572034          0.7192042836906256 0.2374088651156004 1.0000   
         C         C         1.0       0.008573137558975485          0.7089412108816775 0.2542410872217528 1.0000   
         C         C         1.0       0.0104130167153067  0.7112423948151216  0.28219879321228153          1.0000   
         C         C         1.0       0.027893706882689658          0.7245429158217728 0.29197389648014355          1.0000   
         C         C         1.0       0.04404246886706264           0.7332605460968573 0.2755806825577254 1.0000   
         C         C         1.0       0.05804302293294602           0.7860253508026973 0.24288415940134425          1.0000   
         C         C         1.0       0.0516827115885211  0.8081251152910602  0.2343775540027003 1.0000   
         C         C         1.0       0.039636078225983244          0.8102684944142994 0.2107480419727704 1.0000   
         C         C         1.0       0.032018174204531784          0.7917474820095189 0.1969510859226308 1.0000   
         C         C         1.0       0.039593424053676385          0.7696048121777154 0.2041307780028637 1.0000   
         C         C         1.0       0.05385795492264367           0.7664302514467046 0.22672599684554828          1.0000   
         H         H         1.0       0.11736287384349273           0.6814075332135016 0.08656646277735473          1.0000   
         H         H         1.0       0.1339998389263769  0.6990043774480309  0.17107589285992114          1.0000   
         H         H         1.0       0.1655834174784253  0.7221908271451756  0.1547003319035658 1.0000   
         H         H         1.0       0.1534268938066252  0.7041183116723877  0.07320660690422365          1.0000   
         H         H         1.0       0.11274022312848672           0.6594967795356925 0.181263234917431  1.0000   
         H         H         1.0       0.10707542902106537           0.6173925290345262 0.19543708771459928          1.0000   
         H         H         1.0       0.09215492392977365           0.6038326041414528 0.11175660344220655          1.0000   
         H         H         1.0       0.09704031132582273           0.6422418642692936 0.10299880246821827          1.0000   
         H         H         1.0       0.09817548094234495           0.7276974752451961 0.14765116274345924          1.0000   
         H         H         1.0       0.08387100097692109           0.7523089652586931 0.18235054886166366          1.0000   
         H         H         1.0       0.0623597473543715  0.6925904936120101  0.2238028869792209 1.0000   
         H         H         1.0       0.06794893596731111           0.669125614214799  0.1846082016385475 1.0000   
         H         H         1.0       0.13746841905160367           0.7681043419716898 0.2321201919820819 1.0000   
         H         H         1.0       0.09988752560856758           0.7713355864514656 0.22307877998071501          1.0000   
         H         H         1.0       0.08652232112327753           0.7102899738394421 0.26565055411755445          1.0000   
         H         H         1.0       0.12753395936599235           0.7056633530583866 0.27726583724580206          1.0000   
         H         H         1.0       0.02221579782668326           0.7156246536495509 0.21597851511204594          1.0000   
         H         H         1.0       0.9942942269788413  0.6982844526579165  0.2434415233266588 1.0000   
         H         H         1.0       0.02984395166075471           0.726696990168155  0.31399743811036207          1.0000   
         H         H         1.0       0.058634592530767624          0.7408478372644602 0.28632588263092407          1.0000   
         H         H         1.0       0.06808945962066477           0.7856090385114659 0.26003276427951055          1.0000   
         H         H         1.0       0.0553622519562195  0.8230847765898334  0.2462793196398148 1.0000   
         H         H         1.0       0.021992105695910032          0.7933363223265465 0.17854383245504984          1.0000   
         H         H         1.0       0.03394860370056207           0.7551056884528797 0.19279624650830846          1.0000   
         C         C         1.0       0.024125689012804097          0.6601527535967443 0.31006015965338884          1.0000   
         C         C         1.0       0.021142571564545243          0.6426456685105763 0.32762862157020095          1.0000   
         C         C         1.0       0.04016030237670054           0.6339482081241711 0.3393237906972374 1.0000   
         C         C         1.0       0.06148593071511543           0.643827436722463  0.3367112744971408 1.0000   
         C         C         1.0       0.06378681135443057           0.6601963051684895 0.3170905547549347 1.0000   
         C         C         1.0       0.04511058979384885           0.668981113036468  0.3037422163688589 1.0000   
         H         H         1.0       0.003775674550507091          0.6377564677843608 0.335586839577966  1.0000   
         H         H         1.0       0.03828388038714903           0.6225255092399904 0.3558086140102749 1.0000   
         H         H         1.0       0.07877781285708464           0.6704493898924472 0.31409806837791315          1.0000   
         H         H         1.0       0.04771830629364903           0.6826622914048804 0.2891828315121379 1.0000   
         C         C         1.0       0.11567441168704373           0.6551322187697094 0.33367342738561984          1.0000   
         C         C         1.0       0.10332633911845374           0.6554834021868831 0.35776725905363493          1.0000   
         C         C         1.0       0.1124674968206585  0.6694567451003478  0.37867434849608145          1.0000   
         C         C         1.0       0.13199596845936817           0.6822103464327209 0.3753788859481323 1.0000   
         C         C         1.0       0.1432662651879923  0.6821368506406179  0.3512627789252855 1.0000   
         C         C         1.0       0.134823722858953   0.6684195846566863  0.3301777755896551 1.0000   
         C         C         1.0       0.07843221377981967           0.6431414238974787 0.3619364483473385 1.0000   
         C         C         1.0       0.08644030085226116           0.6166393897038448 0.36718024925386605          1.0000   
         C         C         1.0       0.09419548684863535           0.6105028474317082 0.3922989875377512 1.0000   
         C         C         1.0       0.10082388596545311           0.5884522358433784 0.39829722433434556          1.0000   
         C         C         1.0       0.10118995081318416           0.5721299774826787 0.377120185668233  1.0000   
         C         C         1.0       0.09394056303351928           0.578816513408542  0.35221625598564293          1.0000   
         C         C         1.0       0.08760328965638246           0.6000221642605384 0.34703202685244083          1.0000   
         C         C         1.0       0.06088583172733795           0.6811525547775601 0.3808909734859661 1.0000   
         C         C         1.0       0.05538353171543483           0.696313751737532  0.4024443326607528 1.0000   
         C         C         1.0       0.05343508850607332           0.6875416295273703 0.42809527027986777          1.0000   
         C         C         1.0       0.0508341852364007  0.662842551423516   0.4290640582759995 1.0000   
         C         C         1.0       0.05522065219722919           0.6486293426739308 0.40737614051197085          1.0000   
         C         C         1.0       0.06427202679346851           0.657138290215236  0.3845602295202713 1.0000   
         C         C         1.0       0.054309419340189145          0.7044257369038424 0.4539766831157444 1.0000   
         C         C         1.0       0.1290044468711292  0.7060120608808889  0.4670336013749996 1.0000   
         C         C         1.0       0.11785356818639503           0.720092875733449  0.4496815670399094 1.0000   
         C         C         1.0       0.09481478707771673           0.7187720914105857 0.44507884570963735          1.0000   
         C         C         1.0       0.0818384582066931  0.7024336106404818  0.4585087542658709 1.0000   
         C         C         1.0       0.09286477103164438           0.6859569392204128 0.4742170436547816 1.0000   
         C         C         1.0       0.11684836967091133           0.6877066667696462 0.47684068682062253          1.0000   
         C         C         1.0       0.035848750652721854          0.6951956148270791 0.4764017295520017 1.0000   
         C         C         1.0       0.012836743409827987          0.6912980169001303 0.46985494340364253          1.0000   
         C         C         1.0       0.995811658641616   0.6882045990432027  0.49035603005881767          1.0000   
         C         C         1.0       0.0021004695199760004         0.6863140108329545 0.5170304040260247 1.0000   
         C         C         1.0       0.025358515849344565          0.6868115804124943 0.5238425398699124 1.0000   
         C         C         1.0       0.04147088843550461           0.6916738548508297 0.503428002039849  1.0000   
         C         C         1.0       0.05479955079531039           0.7458681714968725 0.47247366384401107          1.0000   
         C         C         1.0       0.04946709197182856           0.7686634349437732 0.47055962604937424          1.0000   
         C         C         1.0       0.034456842624727355          0.7762889092247371 0.4512674024143608 1.0000   
         C         C         1.0       0.0235130691483596  0.759513874399964   0.4359113742937966 1.0000   
         C         C         1.0       0.0293027778969448  0.7365271968527405  0.436398012764103  1.0000   
         C         C         1.0       0.04589698129945074           0.7299001228542605 0.45390631159408174          1.0000   
         H         H         1.0       0.1103550913296008  0.6424758187130959  0.31826467035915623          1.0000   
         H         H         1.0       0.10524554955588397           0.669548375156163  0.3991641590757423 1.0000   
         H         H         1.0       0.1384277882962705  0.6921397522540809  0.3925572478649138 1.0000   
         H         H         1.0       0.1427293221796834  0.6700592458580573  0.3112228139889672 1.0000   
         H         H         1.0       0.09538259453303687           0.6243267000558312 0.40919350290578016          1.0000   
         H         H         1.0       0.10551920308427509           0.5847447269717587 0.41841783342796246          1.0000   
         H         H         1.0       0.09418619862376598           0.5678312957388556 0.33400634201942514          1.0000   
         H         H         1.0       0.08122407558136802           0.6031293522046476 0.32665919816902356          1.0000   
         H         H         1.0       0.06623188787808353           0.6898889075989804 0.3621809262764396 1.0000   
         H         H         1.0       0.05871075645656706           0.7137148815510311 0.3984108225427522 1.0000   
         H         H         1.0       0.046171169332813504          0.6561137839595441 0.4488296757816871 1.0000   
         H         H         1.0       0.05356754941871657           0.6292958995085465 0.4095710744853248 1.0000   
         H         H         1.0       0.1269404644201831  0.7327662390866118  0.43794432675509953          1.0000   
         H         H         1.0       0.08838730795404753           0.7312526325089771 0.4318536687644296 1.0000   
         H         H         1.0       0.08488502938386581           0.6721270971812612 0.48451123517048234          1.0000   
         H         H         1.0       0.1258162837425963  0.6752945595132019  0.4882177714554549 1.0000   
         H         H         1.0       0.00626789096782132           0.6960597419076748 0.449930185779376  1.0000   
         H         H         1.0       0.9782412545273417  0.6918663859091295  0.48432034815523156          1.0000   
         H         H         1.0       0.031077214180585063          0.6872532772827822 0.5455253517668848 1.0000   
         H         H         1.0       0.058748609896003556          0.6951542475804473 0.5106623172167166 1.0000   
         H         H         1.0       0.06543361896944266           0.740282721681928  0.48953320288854446          1.0000   
         H         H         1.0       0.05861995274781239           0.7804802323089863 0.4832440918864312 1.0000   
         H         H         1.0       0.010024029624658313          0.7637473774123787 0.42227312191097   1.0000   
         H         H         1.0       0.021106160144030325          0.7228632577433236 0.4226780645624439 1.0000   
         C         C         1.0       0.014223268762075802          0.7065804068263583 0.07643413941357348          1.0000   
         C         C         1.0       0.984160885152346   0.682663807704896   0.5395243598514949 1.0000   
         H         H         1.0       0.9868299300709485  0.719797417721233   0.548176728178286  1.0000   
         H         H         1.0       0.9983774576025518  0.6989044950986902  0.08655168576289966          1.0000   
         H         H         1.0       0.9668059189159309  0.6798256918051546  0.5318367011913805 1.0000   
         H         H         1.0       0.9876598299968825  0.6660851321296627  0.5487247426060924 1.0000   
         C         C         1.0       0.9965856667520112  0.6952698002276662  0.29941579663983514          1.0000   
         C         C         1.0       0.0029504207678878736         0.6689420304068057 0.29601816555748417          1.0000   
         H         H         1.0       0.9775096784715976  0.6969616040731931  0.29591962226199653          1.0000   
         H         H         1.0       0.9986618601736127  0.6990905184145797  0.32189262401916574          1.0000   
         H         H         1.0       0.003559378878066344          0.6638527010126661 0.2742631865016595 1.0000   
         H         H         1.0       0.9869546394622927  0.6612775547397439  0.3036069203013904 1.0000   
         C         C         1.0       0.1695980017025322  0.697478043101168   0.4489159624088495 1.0000   
         C         C         1.0       0.15476896089739794           0.7093260138176272 0.47205509966050285          1.0000   
         H         H         1.0       0.15953271344248815           0.6981286808566062 0.4299884693750767 1.0000   
         H         H         1.0       0.1849839629696918  0.7087302105090245  0.445114927919593  1.0000   
         H         H         1.0       0.15843448791361878           0.7286213612344397 0.47404876881678726          1.0000   
         H         H         1.0       0.15795467884878397           0.7029590390900441 0.49275156535157055          1.0000   
         C         C         1.0       0.1834081207843444  0.7273049693147681  0.10547437027751831          1.0000   
         C         C         1.0       0.20602443587316696           0.7226948745153575 0.119805252258595  1.0000   
         H         H         1.0       0.18643154156876812           0.7227616833277791 0.08280913450450873          1.0000   
         H         H         1.0       0.17920666678877795           0.7466887789704457 0.10695199959805718          1.0000   
         H         H         1.0       0.22083606348406684           0.7335979139594943 0.11407470597693284          1.0000   
         H         H         1.0       0.2052108119677271  0.7252591530111873  0.14152368890401099          1.0000   
         C         C         1.0       0.17778121903700636           0.7225951336737393 0.2383514109236039 1.0000   
         C         C         1.0       0.16311167819493538           0.7356504513394473 0.2591300442787397 1.0000   
         H         H         1.0       0.1955039740833541  0.7285290408572611  0.24267967088920644          1.0000   
         H         H         1.0       0.1716394330691655  0.7277557072033098  0.21719982348887376          1.0000   
         H         H         1.0       0.1675364220762363  0.7294737629441875  0.27952899359103517          1.0000   
         H         H         1.0       0.16894982676710574           0.7545123469996768 0.26177913510789624          1.0000   
         C         C         1.0       0.2453620980981322  0.5459750172730379  0.4189886010443354 1.0000   
         C         C         1.0       0.22223498011600656           0.5385703008806917 0.43273530361895435          1.0000   
         H         H         1.0       0.25411838425661326           0.5321435555253259 0.4080784709063327 1.0000   
         H         H         1.0       0.25906344403252574           0.5511770789566106 0.43406768112596567          1.0000   
         H         H         1.0       0.22649059985516048           0.5244600980490086 0.4460564359359279 1.0000   
         H         H         1.0       0.21144883121937424           0.5288674809321126 0.41616901101726694          1.0000   
         C         C         1.0       0.16424893131495896           0.5498161801522804 0.16408438022542104          1.0000   
         C         C         1.0       0.16098590368782367           0.5546869178442817 0.13427355346535283          1.0000   
         H         H         1.0       0.17877007840089496           0.5372294085408315 0.16454779733854796          1.0000   
         H         H         1.0       0.1496547479103025  0.540153441676046   0.17388133595202226          1.0000   
         H         H         1.0       0.1605889851313732  0.5376493526059744  0.12196973658328598          1.0000   
         H         H         1.0       0.14334170602552818           0.5610611391306558 0.13184134632281552          1.0000   
         C         C         1.0       0.16177741703375412           0.700830984742274  0.34561715747951155          1.0000   
         C         C         1.0       0.18380206241084063           0.7007252973631667 0.36404932919837657          1.0000   
         H         H         1.0       0.1542238761294007  0.7186010764751193  0.34688347252650314          1.0000   
         H         H         1.0       0.1675544556668213  0.7019888291903661  0.324253342179556  1.0000   
         H         H         1.0       0.17886558354647558           0.7023480598725806 0.38644756761664767          1.0000   
         H         H         1.0       0.19559602602293985           0.7161522936474165 0.36097065760092056          1.0000   
         C         C         1.0       0.08938613811859653           0.5282786715965563 0.37397800534625775          1.0000   
         C         C         1.0       0.10665523723152193           0.5467803037065938 0.38552567608374316          1.0000   
         H         H         1.0       0.09321583918666665           0.5104587680503451 0.3797976426049131 1.0000   
         H         H         1.0       0.09119012578148955           0.5272527066206963 0.35084296041215707          1.0000   
         H         H         1.0       0.12431202424463494           0.5438305960209648 0.379960687728532  1.0000   
         H         H         1.0       0.10774520167111334           0.5452638384500912 0.4074916249677033 1.0000   
         C         C         1.0       0.07302000651465024           0.5706521985373763 0.14840233974129646          1.0000   
         C         C         1.0       0.09111915881839705           0.5832496466465144 0.16571896711512954          1.0000   
         H         H         1.0       0.07135543529774391           0.5534045981757408 0.15718521401862776          1.0000   
         H         H         1.0       0.07877628787960189           0.5673755049754596 0.12725767130342489          1.0000   
         H         H         1.0       0.10638563799968459           0.5729086350593116 0.16568056570161774          1.0000   
         H         H         1.0       0.08520126704669284           0.585671133058507  0.1858584291934249 1.0000   
         C         C         1.0       0.0069546965568028085         0.627679545310287  0.49510021942623794          1.0000   
         C         C         1.0       0.013248330697279265          0.617787980598331  0.5232574741359601 1.0000   
         H         H         1.0       0.021689180956407705          0.6373069621495551 0.49024367354130904          1.0000   
         H         H         1.0       0.9919542525456964  0.6385642002182682  0.4985320000878756 1.0000   
         H         H         1.0       0.018801144999515573          0.6319463997437705 0.5377895855189065 1.0000   
         H         H         1.0       0.02877446721199628           0.6076439403105182 0.5197813335152699 1.0000   
         C         C         1.0       0.9364152234706667  0.6618440008747251  0.23049170033299482          1.0000   
         C         C         1.0       0.9397239516981739  0.6642882305927543  0.2610842236587547 1.0000   
         H         H         1.0       0.9385669819277623  0.6783192001041621  0.21993600670338195          1.0000   
         H         H         1.0       0.9182701850028664  0.6573141358698816  0.2298585143445645 1.0000   
         H         H         1.0       0.9280778123334168  0.6786444244792996  0.26676292237501725          1.0000   
         H         H         1.0       0.9573662255604929  0.6710993522074383  0.2644249059385986 1.0000   
         C         C         1.0       0.061759453789959805          0.5689678239148711 0.49420140740532137          1.0000   
         C         C         1.0       0.07615707929924379           0.5839787853273367 0.516275276161701  1.0000   
         H         H         1.0       0.06764734928069614           0.5727292430355314 0.47399620315652613          1.0000   
         H         H         1.0       0.04489172220955018           0.5756724204285646 0.4944381606762363 1.0000   
         H         H         1.0       0.07698258061465565           0.573234877253252  0.5357938657342405 1.0000   
         H         H         1.0       0.06576532793203968           0.6002061653691576 0.5216590373925968 1.0000   
         C         C         1.0       0.9585836094042414  0.44750043016070773           0.5640589874970379 1.0000   
         C         C         1.0       0.9542719893363502  0.4596309361337319  0.5922237628412108 1.0000   
         H         H         1.0       0.022425234332400512          0.5555348608555271 0.997407470626789  1.0000   
         H         H         1.0       0.9563814106008883  0.4285978377303173  0.5678309866787907 1.0000   
         H         H         1.0       0.9681253066457968  0.4539894541468847  0.6050385436018014 1.0000   
         H         H         1.0       0.9386068590549862  0.45198218304661486           0.603042018813377  1.0000   
         C         C         1.0       0.957967910849469   0.46648680963522976           0.4516766835472712 1.0000   
         C         C         1.0       0.9540397348912779  0.4445453420192034  0.4328286749515327 1.0000   
         H         H         1.0       0.9401025412797847  0.4717104874193663  0.4564027522979883 1.0000   
         H         H         1.0       0.9670631194902344  0.45910605142285027           0.4690520913296911 1.0000   
         H         H         1.0       0.9461590825575122  0.4484317850657049  0.41253812112297183          1.0000   
         H         H         1.0       0.940799291331039   0.4335155708764941  0.4430934476062446 1.0000   
         C         C         1.0       0.07103119555723078           0.6041032343257521 0.2683196708125987 1.0000   
         C         C         1.0       0.059766589208666225          0.5920552690500493 0.24356272109061275          1.0000   
         H         H         1.0       0.06779211638535328           0.5928088919476693 0.2859880246815035 1.0000   
         H         H         1.0       0.06329332131425659           0.6213739967321169 0.2725634036875292 1.0000   
         H         H         1.0       0.07060150338074105           0.593847769521125  0.22567898910761075          1.0000   
         H         H         1.0       0.04374796666602765           0.6006933359876986 0.23901952453741312          1.0000   
         C         C         1.0       0.9423841290451951  0.4787603864012171  0.31546319028892167          1.0000   
         C         C         1.0       0.9235756511300426  0.4900444834828246  0.2985413192409551 1.0000   
         H         H         1.0       0.9404812634579832  0.4602574303650265  0.3173603887410684 1.0000   
         H         H         1.0       0.9427712246188442  0.48449583772714244           0.33699459487012057          1.0000   
         H         H         1.0       0.9244108947041747  0.4878795419130557  0.2768269005950397 1.0000   
         H         H         1.0       0.907578452734054   0.4809874211455863  0.30405475169973906          1.0000   
         C         C         1.0       0.09924021913144523           0.4452990875378756 0.33640865591455105          1.0000   
         C         C         1.0       0.09755403587725275           0.4186795400026861 0.3369550231278463 1.0000   
         H         H         1.0       0.11589479822026827           0.4503975624280532 0.3290584818342742 1.0000   
         H         H         1.0       0.09863684533149511           0.4544656777719283 0.35649928574358525          1.0000   
         H         H         1.0       0.11475388830283756           0.4127661097911979 0.3397746794258326 1.0000   
         H         H         1.0       0.09123093991634613           0.4100438508210728 0.31823639975120327          1.0000   
         C         C         1.0       0.12520744781530457           0.4992207267016128 0.12985619114145902          1.0000   
         C         C         1.0       0.14191520156817852           0.48461250016364577          0.11281532038893682          1.0000   
         H         H         1.0       0.12268101691922997           0.515506133193689  0.12010558995803496          1.0000   
         H         H         1.0       0.132525301027372   0.5041893361841636  0.14802928546224317          1.0000   
         H         H         1.0       0.15707416307894387           0.49582651767290925          0.11160413960870436          1.0000   
         H         H         1.0       0.1478044153342395  0.4692513411665237  0.12278871322309734          1.0000   
         C         C         1.0       0.9371422767063023  0.5109619295302681  0.12347814289753095          1.0000   
         C         C         1.0       0.9476362033422208  0.4920705430639473  0.10272007713060623          1.0000   
         H         H         1.0       0.9316463195271478  0.5018048113325274  0.142055953686077  1.0000   
         H         H         1.0       0.9220847462000116  0.5173817813271071  0.11439749449393732          1.0000   
         H         H         1.0       0.9501284742762575  0.5023006954871708  0.08388132145800863          1.0000   
         H         H         1.0       0.9335990755355089  0.4804025107532794  0.10006540015214817          1.0000   
         C         C         1.0       0.6710212828326452  0.7628924915220837  0.37702761325086365          1.0000   
         C         C         1.0       0.6812255790504994  0.7452615906435167  0.39768883412908596          1.0000   
         H         H         1.0       0.6858223628712484  0.7703644167500673  0.365705016075847  1.0000   
         H         H         1.0       0.6623914265291732  0.7771285686430298  0.38735298153640224          1.0000   
         H         H         1.0       0.6885551356571229  0.7297254619173988  0.3859055798489257 1.0000   
         H         H         1.0       0.6967893338274109  0.7539579173519539  0.40657130322975393          1.0000   
         C         C         1.0       0.5792055205152016  0.864557227040789   0.15685527429905094          1.0000   
         C         C         1.0       0.5929073462823023  0.8518468816830105  0.13436531497612214          1.0000   
         H         H         1.0       0.5632840863373321  0.8709566644696335  0.14676915367396118          1.0000   
         H         H         1.0       0.5889547273202971  0.8816524293139293  0.1601841503246425 1.0000   
         H         H         1.0       0.6094499754876102  0.8504295312112681  0.14318438642309764          1.0000   
         H         H         1.0       0.5938749892978402  0.864763157180653   0.11965651805400841          1.0000   
         C         C         1.0       0.34822801662151864           0.6034586269113934 0.360713175979463  1.0000   
         C         C         1.0       0.33806659672060885           0.6218752931982956 0.3429573842811549 1.0000   
         H         H         1.0       0.33952141731441354           0.6037217829332682 0.3800410078965854 1.0000   
         H         H         1.0       0.34585823014646605           0.5858021767674803 0.35215097199465273          1.0000   
         H         H         1.0       0.3456489886510562  0.6210964358239458  0.321465221738577  1.0000   
         H         H         1.0       0.3455984939484426  0.6380456189315193  0.35061735334152344          1.0000   
         C         C         1.0       0.5620618729191771  0.6271979056912782  0.5212654744708526 1.0000   
         C         C         1.0       0.5784549785630773  0.6303387912897662  0.4959814636105919 1.0000   
         H         H         1.0       0.5718464256558643  0.6197849453137031  0.5387115911752093 1.0000   
         H         H         1.0       0.5543087751378365  0.6436909692148219  0.5282712892643204 1.0000   
         H         H         1.0       0.5717272683696931  0.6211557358993416  0.47766755227281477          1.0000   
         H         H         1.0       0.5947845187338824  0.6220051280656156  0.49950454818034906          1.0000   
         C         C         1.0       0.5224275515594334  0.6770127688460663  0.3467690712517783 1.0000   
         C         C         1.0       0.49705710565458205           0.6858841764737581 0.3469299014435008 1.0000   
         H         H         1.0       0.5243720683035232  0.662355035799074   0.33261603334974404          1.0000   
         H         H         1.0       0.5253788395533578  0.6675717605717416  0.3652779993590672 1.0000   
         H         H         1.0       0.49187534849905284           0.6958004753631215 0.3284496165844397 1.0000   
         H         H         1.0       0.4953605370177623  0.6985164996636903  0.3638458481787606 1.0000   
         C         C         1.0       0.3166043893653012  0.6240687091391851  0.15220562750910968          1.0000   
         C         C         1.0       0.32948204671527037           0.6476852122817655 0.15832811542939412          1.0000   
         H         H         1.0       0.31689350909816916           0.6120128961858359 0.16893717530325314          1.0000   
         H         H         1.0       0.32778996822097756           0.6129490420318473 0.1397988547736392 1.0000   
         H         H         1.0       0.32687354220484893           0.6539040596596737 0.17934889113253785          1.0000   
         H         H         1.0       0.31913033922053063           0.660778421627277  0.14836577177093924          1.0000   
         C         C         1.0       0.5103232976402111  0.7102815188697251  0.24830122048532896          1.0000   
         C         C         1.0       0.4938124857613981  0.7279737157617326  0.2357136823463138 1.0000   
         H         H         1.0       0.5092342094126507  0.7118560880909368  0.2710210820521337 1.0000   
         H         H         1.0       0.527992057554113   0.7141124968350616  0.24504398693697824          1.0000   
         H         H         1.0       0.4776441390941027  0.7247056045161049  0.24592412851461368          1.0000   
         H         H         1.0       0.4916049969750006  0.7233792464375932  0.2160214812842771 1.0000   
         C         C         1.0       0.43784711022594336           0.555477229429246  0.5964249771580238 1.0000   
         C         C         1.0       0.43083420646119325           0.5424827920226554 0.5704954589695964 1.0000   
         H         H         1.0       0.4573711758776732  0.5569323426266192  0.5991576724441474 1.0000   
         H         H         1.0       0.433037172470599   0.5465885310810147  0.616302254567661  1.0000   
         H         H         1.0       0.41274419279704866           0.5458412175786668 0.5640518355323001 1.0000   
         H         H         1.0       0.43163925698348476           0.5235805004007853 0.5726749228566335 1.0000   
         C         C         1.0       0.465654607077487   0.5311306587965493  0.2760410154502288 1.0000   
         C         C         1.0       0.47904411037018324           0.5257319312650218 0.3022068190247949 1.0000   
         H         H         1.0       0.44666016354162097           0.5302106172310588 0.2785484282438178 1.0000   
         H         H         1.0       0.4704188557158066  0.5168483127177603  0.26275953649362693          1.0000   
         H         H         1.0       0.4975998801311014  0.5262676752266617  0.29763416926191016          1.0000   
         H         H         1.0       0.4748242945524107  0.508029629197324   0.30940588052817053          1.0000   
         C         C         1.0       0.4690762832990233  0.7416984286189952  0.10047629819333341          1.0000   
         C         C         1.0       0.4555466671854763  0.7230001155618777  0.08256240450627772          1.0000   
         H         H         1.0       0.4634319995291005  0.7423153130836757  0.12271076799192697          1.0000   
         H         H         1.0       0.46384119839751287           0.7585683113197522 0.0923100679178294 1.0000   
         H         H         1.0       0.4678778450610689  0.7283643387274267  0.5672605411773097 1.0000   
         H         H         1.0       0.437078378601459   0.7294099650247462  0.07938692527434704          1.0000   
         C         C         1.0       0.8488163779790053  0.5685456681863789  0.512977232331578  1.0000   
         C         C         1.0       0.8696979709395862  0.5846386381193704  0.5118427256876837 1.0000   
         H         H         1.0       0.867108885200424   0.574646025344935   0.9993457155518516 1.0000   
         H         H         1.0       0.8419564140797722  0.5672732917493497  0.4936848530995306 1.0000   
         H         H         1.0       0.8785812112278029  0.5823206982770159  0.49097447548175216          1.0000   
         H         H         1.0       0.8664851329693588  0.6029011550542506  0.5114412487061546 1.0000   
         C         C         1.0       0.6029690026404492  0.6250363175277984  0.59707489960637   1.0000   
         C         C         1.0       0.6008152875604863  0.6465035623451376  0.6150563167339149 1.0000   
         H         H         1.0       0.5867637190048439  0.6226481151954064  0.5852290247386319 1.0000   
         H         H         1.0       0.5999439639933433  0.6102094937678046  0.6111048504159333 1.0000   
         H         H         1.0       0.6406805036975673  0.6872437296906627  0.09337583034342338          1.0000   
         H         H         1.0       0.5896180835559677  0.6423055167124061  0.6325365540944784 1.0000   
         C         C         1.0       0.8230296671771613  0.5951474916921571  0.4011835336464918 1.0000   
         C         C         1.0       0.8411847370913276  0.6147524443267343  0.3999228247594836 1.0000   
         H         H         1.0       0.8202950706927107  0.5895394285715013  0.42293460659545273          1.0000   
         H         H         1.0       0.8289318502481124  0.5788510004833477  0.3912943212967294 1.0000   
         H         H         1.0       0.8330583230539641  0.6318580187710489  0.3953565110400326 1.0000   
         H         H         1.0       0.8479373683416933  0.6160313740938815  0.42044502295477076          1.0000   
         C         C         1.0       0.6390349387847332  0.6619633961740212  0.1998830087640728 1.0000   
         C         C         1.0       0.6154720363563843  0.6613401941285385  0.2151721124746739 1.0000   
         H         H         1.0       0.6348224333645296  0.6607471477337317  0.17755067581730097          1.0000   
         H         H         1.0       0.6463819956640734  0.6796780304264463  0.20113877674167543          1.0000   
         H         H         1.0       0.6100965027877101  0.6449219709439331  0.22548168496096607          1.0000   
         H         H         1.0       0.6019004293764569  0.6623524314662649  0.19899853223906797          1.0000   
         C         C         1.0       0.6951447091005185  0.6865360378832874  0.4248361095113758 1.0000   
         C         C         1.0       0.708186834985074   0.6910345002512522  0.4522732000934792 1.0000   
         H         H         1.0       0.6763629521256302  0.6860055428756655  0.4292703899449614 1.0000   
         H         H         1.0       0.696506486289883   0.7025696340289517  0.4134747521940687 1.0000   
         H         H         1.0       0.7004406987577217  0.7077642758050836  0.45812770037853495          1.0000   
         H         H         1.0       0.7264821685543936  0.694305991983971   0.44783854344339363          1.0000   
         C         C         1.0       0.8146515552842604  0.6467631355897018  0.16950417053507855          1.0000   
         C         C         1.0       0.8112310724770825  0.6382958533632354  0.19851699604158848          1.0000   
         H         H         1.0       0.8333084818453951  0.648816676057858   0.16765093991497243          1.0000   
         H         H         1.0       0.8062567195073033  0.6647381960528654  0.16867453863195608          1.0000   
         H         H         1.0       0.8243851752418139  0.6248492599129126  0.2031827288148394 1.0000   
         H         H         1.0       0.8141001081975336  0.6514737438428677  0.2162095375591854 1.0000   
         C         C         1.0       0.5401851098683174  0.4706668194509051  0.43503187032163904          1.0000   
         C         C         1.0       0.5231003057080845  0.48340236147272386           0.41717108344093135          1.0000   
         H         H         1.0       0.5299639423768244  0.45752672280031487           0.4461724241435207 1.0000   
         H         H         1.0       0.547262632414511   0.48238759484787064           0.4524564123444445 1.0000   
         H         H         1.0       0.5091001758305161  0.4710418628686413  0.41140469364929455          1.0000   
         H         H         1.0       0.5318821302615158  0.4878514981438404  0.39790407521374677          1.0000   
         C         C         1.0       0.6611639927879968  0.5177998077075934  0.32718059951600825          1.0000   
         C         C         1.0       0.6620070177372033  0.5301376392068128  0.35411551354154464          1.0000   
         H         H         1.0       0.6792276128314366  0.5161243528179595  0.3223154059362404 1.0000   
         H         H         1.0       0.6516513551542364  0.529178832290848   0.3124348137041021 1.0000   
         H         H         1.0       0.6466098240417629  0.537393861015534   0.3600256299615515 1.0000   
         H         H         1.0       0.6658941046883715  0.5164050778564787  0.3685901730309963 1.0000   
         C         C         1.0       0.7054190975089595  0.5129274416236562  0.49664419517530173          1.0000   
         C         C         1.0       0.6852075605077297  0.5249842222971288  0.48277407709353787          1.0000   
         H         H         1.0       0.7225941761339442  0.5172289885448415  0.48561435348274357          1.0000   
         H         H         1.0       0.7070523927973856  0.517605178854038   0.5180389632576041 1.0000   
         H         H         1.0       0.6691527594706432  0.513834228681051   0.48497827500585056          1.0000   
         H         H         1.0       0.6864198388297863  0.5269600399149013  0.46057985529767265          1.0000   
         C         C         1.0       0.5953011672743581  0.5932230546837696  0.19843073203851672          1.0000   
         C         C         1.0       0.6028114553330338  0.5696984779473081  0.21103330790826336          1.0000   
         H         H         1.0       0.6049078828402564  0.6071447579637269  0.20841250457143862          1.0000   
         H         H         1.0       0.6015185418889375  0.5921151529771533  0.17710334318805673          1.0000   
         H         H         1.0       0.5908661628203431  0.5639202820670526  0.22767268879089508          1.0000   
         H         H         1.0       0.6175783094976601  0.5740472598143029  0.2249392930444179 1.0000   
         C         C         1.0       0.6867892074231189  0.5227617901119884  0.5813346689076965 1.0000   
         C         C         1.0       0.7183673946169868  0.5140278958500266  0.09313246871300725          1.0000   
         H         H         1.0       0.6947215488888407  0.5181466613117063  0.5609683518156936 1.0000   
         H         H         1.0       0.6858981096632019  0.5420062144351627  0.5833328401250438 1.0000   
         H         H         1.0       0.7121273030580137  0.516353790551637   0.11439066516418177          1.0000   
         H         H         1.0       0.726519757957913   0.4965577741366482  0.0903615677582244 1.0000   
         C         C         1.0       0.699171446297038   0.4948538878513763  0.2423585030652458 1.0000   
         C         C         1.0       0.6900415606020373  0.5097231483397338  0.21899749389426099          1.0000   
         H         H         1.0       0.7184728985971675  0.49385283842232536           0.24166261642705592          1.0000   
         H         H         1.0       0.6960375622115286  0.5039572741437223  0.2615588246571128 1.0000   
         H         H         1.0       0.6710382218417524  0.5098170122372833  0.22207664591587203          1.0000   
         H         H         1.0       0.6914183229307601  0.5044366556873502  0.1967949002084629 1.0000   
         C         C         1.0       0.5505298881991978  0.43511269817490045           0.5203901736700886 1.0000   
         C         C         1.0       0.561488132972138   0.4387656359735179  0.4923997716473277 1.0000   
         H         H         1.0       0.5494266583200469  0.41622020108041646           0.524512415672519  1.0000   
         H         H         1.0       0.5326198857072316  0.4414458586457911  0.5218558859368979 1.0000   
         H         H         1.0       0.5530326112841253  0.4258986634549239  0.478755721077853  1.0000   
         H         H         1.0       0.5568563280609967  0.45581161162460765           0.48222529689665594          1.0000   
         C         C         1.0       0.5873521498302426  0.3651417375166247  0.27304264238544507          1.0000   
         C         C         1.0       0.5962189887799726  0.3570012041916201  0.3006053134382791 1.0000   
         H         H         1.0       0.5703634858188453  0.370828187900648   0.2767693331175092 1.0000   
         H         H         1.0       0.5833666229938584  0.349434424935449   0.26040794528111844          1.0000   
         H         H         1.0       0.5834703617395608  0.3448470762693295  0.3090928329383049 1.0000   
         H         H         1.0       0.6108475021389099  0.3457533766517444  0.2960327828181492 1.0000   
         C         C         1.0       0.9552582375430477  0.008976005776943241         0.4228774708214201 1.0000   
         C         C         1.0       0.9638591310403413  0.009648266673599082         0.39251335907894275          1.0000   
         H         H         1.0       0.9600578513953436  0.9918179743076398  0.431957170726563  1.0000   
         H         H         1.0       0.9362146874138241  0.008672520146699503         0.42279400382811133          1.0000   
         H         H         1.0       0.9644681853144705  0.9918223098737754  0.38628678969411007          1.0000   
         H         H         1.0       0.983160715622529   0.01396454909021716           0.3921896532480908 1.0000   
         C         C         1.0       0.9266060803428171  0.9985339581408402  0.14610760961426433          1.0000   
         C         C         1.0       0.9429001329030993  0.9970828845659006  0.12061006206896902          1.0000   
         H         H         1.0       0.907854695150034   0.9987692928404108  0.13870609555817545          1.0000   
         H         H         1.0       0.927793483119784   0.9825876443591476  0.158345968006525  1.0000   
         H         H         1.0       0.9423987405392137  0.9808885807153979  0.10834500793995848          1.0000   
         H         H         1.0       0.9605068461375538  0.9980561586760986  0.1272579539666226 1.0000   
         C         C         1.0       0.06247787914965497           0.3007528328129052 0.4460615189490601 1.0000   
         C         C         1.0       0.08369106636608725           0.29348198710853945          0.42879928102265347          1.0000   
         H         H         1.0       0.06456170782560733           0.29515069054998005          0.4679433092196655 1.0000   
         H         H         1.0       0.047200903628561   0.2913390931894944  0.43829819700057177          1.0000   
         H         H         1.0       0.08477805315674103           0.3021623989529145 0.40826864294789383          1.0000   
         H         H         1.0       0.09907141707242517           0.2987701526168476 0.4402134895474926 1.0000   
         C         C         1.0       0.9874539169498122  0.17564432073023592           0.4772371352462386 1.0000   
         C         C         1.0       0.006401031497921039          0.19094627785303636          0.4898315479743966 1.0000   
         H         H         1.0       0.9703405833507407  0.18052108041381618           0.4867154652397996 1.0000   
         H         H         1.0       0.9872841236413098  0.17798054848842032           0.45528333549425437          1.0000   
         H         H         1.0       0.009287911087445977          0.1877894881330956 0.5124105077041631 1.0000   
         H         H         1.0       0.9996736961371393  0.20895863272907483           0.48742587161612305          1.0000   
         C         C         1.0       0.9664057283556606  0.17433648653284298           0.321980028545212  1.0000   
         C         C         1.0       0.9525657581737246  0.16177724761629605           0.34362594698645427          1.0000   
         H         H         1.0       0.9659196531471171  0.19264641994467585           0.3279716033387779 1.0000   
         H         H         1.0       0.9591044993152282  0.17165391243789627           0.3017296005136232 1.0000   
         H         H         1.0       0.9376437887473622  0.17252868780170588           0.3467027787655385 1.0000   
         H         H         1.0       0.9605554236509568  0.16235373156353794           0.36431357716027907          1.0000   
         C         C         1.0       0.01867644112290634           0.3604559366243073 0.13635101510122358          1.0000   
         C         C         1.0       0.9937500886860575  0.3539325769407057  0.12649305000302138          1.0000   
         H         H         1.0       0.03193469010069894           0.352161470994635  0.12418123774049294          1.0000   
         H         H         1.0       0.022363284884327372          0.35390499686891586          0.15687630766555527          1.0000   
         H         H         1.0       0.9891651164333951  0.36158482936564096           0.10619208745131953          1.0000   
         H         H         1.0       0.9811551574244018  0.3623922227261362  0.13879453905359046          1.0000   
         C         C         1.0       0.9183040825000134  0.1922572005320424  0.15621140168605416          1.0000   
         C         C         1.0       0.9204699678419273  0.16884485095131482           0.1413370476374709 1.0000   
         H         H         1.0       0.9129646423140858  0.1899146328508798  0.17738800108460842          1.0000   
         H         H         1.0       0.9027665182272886  0.20070876904820545           0.14899943288659906          1.0000   
         H         H         1.0       0.9297929364961179  0.17037972996099496           0.12340369766757343          1.0000   
         H         H         1.0       0.9028948990044765  0.16315905532772862           0.13325139036453146          1.0000   
         C         C         1.0       0.17937371134420957           0.17846399111008887          0.477340035575642  1.0000   
         C         C         1.0       0.18012717237946946           0.2001409626842784 0.49666875311661124          1.0000   
         H         H         1.0       0.18154849408683157           0.16165197830320116          0.48821758892001027          1.0000   
         H         H         1.0       0.19441468837511056           0.17950652541876874          0.4628111278660043 1.0000   
         H         H         1.0       0.19832824547052014           0.20381673008212725          0.5026815185596878 1.0000   
         H         H         1.0       0.17490137102624542           0.2163061903310566 0.48791348509787774          1.0000   
         C         C         1.0       0.07196635611802815           0.24586760192948376          0.22012969473517907          1.0000   
         C         C         1.0       0.0579608975001985  0.2445420335401341  0.24770740074832878          1.0000   
         H         H         1.0       0.0817390954953333  0.22967408526764718           0.21744303535544662          1.0000   
         H         H         1.0       0.08262000494556719           0.262253060987793  0.22145693915767217          1.0000   
         H         H         1.0       0.05946042908830013           0.2598675099496628 0.2585435503641742 1.0000   
         H         H         1.0       0.039346115828649886          0.24568379276046604          0.24337860311244935          1.0000   
         C         C         1.0       0.0864499481517238  0.09083742969536023           0.5963654528136993 1.0000   
         C         C         1.0       0.9879759420135719  0.12015888951332744           0.9832584778257054 1.0000   
         H         H         1.0       0.07411958594389678           0.08535857028674534          0.580813678540371  1.0000   
         H         H         1.0       0.09958375313768753           0.07719228471618114          0.6012867186945913 1.0000   
         H         H         1.0       0.9822309297224766  0.13780520603321084           0.9755383018031656 1.0000   
         H         H         1.0       0.9866410537780503  0.10860998548198207           0.9662033199281348 1.0000   
         C         C         1.0       0.05386621213161418           0.816353863561706  0.44551708932261325          1.0000   
         C         C         1.0       0.03106010642510126           0.8031448020092826 0.4500021486717476 1.0000   
         H         H         1.0       0.0638055160938668  0.8070265140339268  0.43062002942548977          1.0000   
         H         H         1.0       0.0651294342977432  0.8158055944020038  0.4630926248786505 1.0000   
         H         H         1.0       0.019692151888592857          0.8067348593973973 0.4324656211557748 1.0000   
         H         H         1.0       0.02081508008004795           0.8108970346270922 0.4670640551226733 1.0000   
         C         C         1.0       0.11394975906664295           0.07059433937845139          0.5128035401386833 1.0000   
         C         C         1.0       0.10347482093513771           0.0847094198746372 0.49180349522259587          1.0000   
         H         H         1.0       0.11458063432056287           0.08048665429933255          0.5312553950658261 1.0000   
         H         H         1.0       0.13202666657843865           0.06743689382860896          0.5065326444841641 1.0000   
         H         H         1.0       0.10780631782834416           0.10151702486822223          0.49535610724924733          1.0000   
         H         H         1.0       0.11061855942352672           0.08118420562018747          0.47244541508778826          1.0000   
         C         C         1.0       0.040572087869708444          0.8400188006828709 0.17283398646370043          1.0000   
         C         C         1.0       0.03040140936413871           0.8329657586924478 0.20045334419976132          1.0000   
         H         H         1.0       0.05926449694144355           0.8394531466546615 0.174276917421712  1.0000   
         H         H         1.0       0.03490473565224316           0.8289265697584017 0.15666811283378437          1.0000   
         H         H         1.0       0.011618871900243464          0.8304732918889095 0.19966040317831196          1.0000   
         H         H         1.0       0.03382365113721697           0.8481730235866475 0.21513479278461003          1.0000   
         C         C         1.0       0.06279062898138155           0.09912195437796933          0.2340570565587679 1.0000   
         C         C         1.0       0.050578514880143866          0.11157029147993835          0.21047193160043365          1.0000   
         H         H         1.0       0.05849181582830898           0.10784416378704154          0.2545041721188565 1.0000   
         H         H         1.0       0.08167525978418255           0.10074453176388776          0.23041143368731243          1.0000   
         H         H         1.0       0.06097619996926329           0.11079501514311438          0.19009137532855883          1.0000   
         H         H         1.0       0.050749990965030634          0.1296038849523088 0.21476811503559046          1.0000   
         C         C         1.0       0.9901361030987266  0.9490420785275132  0.35130964434993056          1.0000   
         C         C         1.0       0.9922803298428684  0.9505494207102696  0.3204710442323109 1.0000   
         H         H         1.0       0.9739306966724094  0.9391581221309534  0.3528696670119811 1.0000   
         H         H         1.0       0.9898299740153054  0.9668291677873502  0.3606548488601265 1.0000   
         H         H         1.0       0.9962495681683643  0.934115225981872   0.31177899211165944          1.0000   
         H         H         1.0       0.9746263337017577  0.9531508075615435  0.3135626418123846 1.0000   
         C         C         1.0       0.9569907063820006  0.9286671744148312  0.07817174279258716          1.0000   
         C         C         1.0       0.9515644611213351  0.9495681093946106  0.05997531575550284          1.0000   
         H         H         1.0       0.9588494592086676  0.9123622070100711  0.06458830536249112          1.0000   
         H         H         1.0       0.9418030490089285  0.9265860323076935  0.0912707834389148 1.0000   
         H         H         1.0       0.9457299411330937  0.9638824645303025  0.07242059285027833          1.0000   
         H         H         1.0       0.9352325983955038  0.9462642107556746  0.04831286597436524          1.0000   
         C         C         1.0       0.13706623929973177           0.07912073034839093          0.266850734639414  1.0000   
         C         C         1.0       0.1112512901127582  0.07946073754659996           0.27233814598797135          1.0000   
         H         H         1.0       0.14497281741120793           0.09546684444546029          0.26026762238800755          1.0000   
         H         H         1.0       0.13959558332064745           0.0685422654423386 0.24872293832565498          1.0000   
         H         H         1.0       0.10764242639227857           0.06391140801618467          0.28525638467565195          1.0000   
         H         H         1.0       0.10249078850468764           0.07525080358829121          0.25304047482175546          1.0000   
         C         C         1.0       0.16549064870539548           0.9579100592895651 0.41039027642412457          1.0000   
         C         C         1.0       0.1558304685357382  0.9405680621634703  0.38937331254139496          1.0000   
         H         H         1.0       0.18060861203063325           0.9493617472539568 0.41898551927829775          1.0000   
         H         H         1.0       0.15322005065452415           0.9608180566361766 0.426881507149482  1.0000   
         H         H         1.0       0.15662593288851484           0.9491293450316128 0.36840300539187215          1.0000   
         H         H         1.0       0.16651566601456574           0.9270638577455355 0.3884098491448846 1.0000   
         C         C         1.0       0.1523497137119853  0.9873855380280976  0.2586612161782546 1.0000   
         C         C         1.0       0.16446725465080855           0.9966818159444435 0.23253567724966234          1.0000   
         H         H         1.0       0.1578070959037222  0.998699254733517   0.27507713621464763          1.0000   
         H         H         1.0       0.15787187007285694           0.97011368807259   0.2659293648260397 1.0000   
         H         H         1.0       0.15251584817386432           0.010432648101252884         0.2250827819330589 1.0000   
         H         H         1.0       0.16682210578112364           0.982725131267605  0.21826238855100208          1.0000   
         C         C         1.0       0.10134153712782593           0.17321076877697614          0.19655497942636513          1.0000   
         C         C         1.0       0.07655510163310976           0.16657534073240543          0.1861675419037492 1.0000   
         H         H         1.0       0.10071395323602529           0.1737443492210943 0.2189197236540466 1.0000   
         H         H         1.0       0.10425024728085615           0.19124659697535085          0.19208246986050884          1.0000   
         H         H         1.0       0.06483168002336767           0.17378762770324205          0.19986266649858883          1.0000   
         H         H         1.0       0.07435260718463833           0.14837295313581236          0.19032932111120784          1.0000   
         C         C         1.0       0.12194457464404759           0.00958541516124356          0.1691669473564104 1.0000   
         C         C         1.0       0.11755806816955358           0.9989247941617296 0.14178060469755055          1.0000   
         H         H         1.0       0.1337581628282265  0.9965466207430494  0.17929331577225735          1.0000   
         H         H         1.0       0.10660716029155352           0.011432543328346423         0.1807159155029793 1.0000   
         H         H         1.0       0.1354498035309887  0.9918863427685278  0.13571088484207314          1.0000   
         H         H         1.0       0.11489021071841754           0.013331952266426805         0.12673318882605925          1.0000   
         C         C         1.0       0.16779840729536297           0.10725035557175439          0.4805946943445694 1.0000   
         C         C         1.0       0.1814655464696588  0.113551591990435   0.4538714507388128 1.0000   
         H         H         1.0       0.15181310443423757           0.09731015804236233          0.4755393895665436 1.0000   
         H         H         1.0       0.1642389312023087  0.12536891534537106           0.4897493251747223 1.0000   
         H         H         1.0       0.19834690672065908           0.12131255274883625          0.46092426992980695          1.0000   
         H         H         1.0       0.17246311446003076           0.1267920209840248 0.4413725437588797 1.0000   
         C         C         1.0       0.2658955521168769  0.1267729747483179  0.21546239135915984          1.0000   
         C         C         1.0       0.24450757514622443           0.1412648015416771 0.2209541345505562 1.0000   
         H         H         1.0       0.28085879494757654           0.13850918860695688          0.22029725111102358          1.0000   
         H         H         1.0       0.26722857143316975           0.1255619761020071 0.19176231859729465          1.0000   
         H         H         1.0       0.2483580600476626  0.15979719074217794           0.2132368154805775 1.0000   
         H         H         1.0       0.24089679189021607           0.1428313987455812 0.2436110099415615 1.0000   
         C         C         1.0       0.10476641863097803           0.009309464278546287         0.06158113400347547          1.0000   
         C         C         1.0       0.12156113756058648           0.008585598042010645         0.03763378536027462          1.0000   
         H         H         1.0       0.10543282152282449           0.025702027433824437         0.07301951782315792          1.0000   
         H         H         1.0       0.10782326055359549           0.9956846314035096 0.07647454480304768          1.0000   
         H         H         1.0       0.17018409760565026           0.967755666243747  0.6291931035386379 1.0000   
         H         H         1.0       0.13098773586681997           0.992527504126819  0.03737773659606103          1.0000   
         C         C         1.0       0.810295886110671   0.048516209220565105         0.29965672639942476          1.0000   
         C         C         1.0       0.8222428970216836  0.04197175228406505           0.32560805180008423          1.0000   
         H         H         1.0       0.8186265450014971  0.06502131337225374           0.29163226251094154          1.0000   
         H         H         1.0       0.8121216255014944  0.034739881074171516         0.28503563738177207          1.0000   
         H         H         1.0       0.8222008358070165  0.022821209620576433         0.3277702510997466 1.0000   
         H         H         1.0       0.8148079194676706  0.050940002201227956         0.3433442387821737 1.0000   
         C         C         1.0       0.8669940423756581  0.09481587017038536           0.1470982681877391 1.0000   
         C         C         1.0       0.8837840174819814  0.13304106665657708           0.6260623224916202 1.0000   
         H         H         1.0       0.9056630427454421  0.136984452037266   0.6612511663926385 1.0000   
         H         H         1.0       0.8625969815028925  0.07777918157506813           0.15330924284848477          1.0000   
         H         H         1.0       0.8956116185116214  0.1372109835216663  0.6098739009562488 1.0000   
         H         H         1.0       0.8806580848536585  0.15225465290925166           0.6319214786675365 1.0000   
         C         C         1.0       0.8212531591036081  0.032566778594755874         0.4840932950257022 1.0000   
         C         C         1.0       0.7995138224310303  0.01667397996198483           0.48316285824650135          1.0000   
         H         H         1.0       0.8257922487916618  0.040352759914962455         0.46438959821741316          1.0000   
         H         H         1.0       0.8366688255077187  0.021420917502759984         0.48830117066626066          1.0000   
         H         H         1.0       0.7965154357046742  0.008952295902790341         0.5042601139091041 1.0000   
         H         H         1.0       0.8021875957058817  0.0007315761217008275        0.4710535720836586 1.0000   
         C         C         1.0       0.6741119605181644  0.003082275154078662         0.23147342035710625          1.0000   
         C         C         1.0       0.6599240147676001  0.01571689472208027           0.253271632965277  1.0000   
         H         H         1.0       0.6694435674957537  0.984610241653063   0.2268533327159101 1.0000   
         H         H         1.0       0.6918005168670769  0.9993847251994636  0.23741495175372423          1.0000   
         H         H         1.0       0.6449813350953214  0.02569694417539048           0.24542059540218705          1.0000   
         H         H         1.0       0.6518332461138577  0.004202145344350816         0.26785592417965703          1.0000   
         C         C         1.0       0.7106550563442968  0.3539849598497369  0.5328258854552023 1.0000   
         C         C         1.0       0.697808760897442   0.3326888357736103  0.5451244467714507 1.0000   
         H         H         1.0       0.7168803452216103  0.3630401355451282  0.5507227009596989 1.0000   
         H         H         1.0       0.7254117215068298  0.3466580231404882  0.5210653161056745 1.0000   
         H         H         1.0       0.6846361653287141  0.3385723031204431  0.5606354811531967 1.0000   
         H         H         1.0       0.7113118184781371  0.32275664838614043           0.5555329221156762 1.0000   
         C         C         1.0       0.6975166810277694  0.13401952418992596           0.558677328345283  1.0000   
         C         C         1.0       0.7186837573621131  0.15086618956063907           0.5603732617839429 1.0000   
         H         H         1.0       0.6941929889974519  0.12554613756828628           0.578572041393536  1.0000   
         H         H         1.0       0.699898130147307   0.1199437912701826  0.5449900816579331 1.0000   
         H         H         1.0       0.7147695900680898  0.16345772176954515           0.5770163540185325 1.0000   
         H         H         1.0       0.7005094066121371  0.13580069909230172           0.01795770319301715          1.0000   
         C         C         1.0       0.7197389105498234  0.18113513773944628           0.45857969226653644          1.0000   
         C         C         1.0       0.7075512087874408  0.16329756265874157           0.47674459374089145          1.0000   
         H         H         1.0       0.7198889765043102  0.17389020702187963           0.43629140758542584          1.0000   
         H         H         1.0       0.7375736261415264  0.18343996248993727           0.46519563733915   1.0000   
         H         H         1.0       0.7109694784208975  0.16654747808265075           0.49791240765637773          1.0000   
         H         H         1.0       0.6884672331105873  0.16510876108628858           0.4764757945948859 1.0000   
         C         C         1.0       0.6682757535363779  0.35008050916062244           0.1206069174571466 1.0000   
         C         C         1.0       0.6527854464638816  0.33023484763802835           0.10901774015938291          1.0000   
         H         H         1.0       0.6742700143543033  0.35927945875569706           0.10234628825701328          1.0000   
         H         H         1.0       0.6834314889743877  0.34221422521275124           0.12828196877475642          1.0000   
         H         H         1.0       0.6623669593253491  0.32345018217318827           0.09156887198322526          1.0000   
         H         H         1.0       0.6364897318595023  0.33899430401931135           0.10267219103874373          1.0000   
         C         C         1.0       0.6765462074209041  0.18636027798785754           0.3529012980215662 1.0000   
         C         C         1.0       0.6838663041936864  0.17162741253009123           0.3270872847803865 1.0000   
         H         H         1.0       0.6671642882355886  0.17745695187633048           0.3703036232692015 1.0000   
         H         H         1.0       0.6912300988299924  0.19330422622109775           0.36152780230174836          1.0000   
         H         H         1.0       0.6980495479259373  0.1826973440064373  0.3183756052098715 1.0000   
         H         H         1.0       0.6687150599234137  0.16950401569761944           0.313803584115842  1.0000   
         C         C         1.0       0.6012170011319089  0.3213828372126492  0.3780521425605906 1.0000   
         C         C         1.0       0.6211154240349169  0.3250366810601035  0.39966628303497287          1.0000   
         H         H         1.0       0.5978532013015458  0.33801790690055067           0.3682287133465131 1.0000   
         H         H         1.0       0.5856625729669607  0.3176135213388519  0.3909670047475659 1.0000   
         H         H         1.0       0.6356385714327735  0.3326408187952549  0.38885582174713473          1.0000   
         H         H         1.0       0.6145856979683044  0.33958626601891523           0.4129858049210998 1.0000   
         C         C         1.0       0.532168906636289   0.21627851547116972           0.15433969068327982          1.0000   
         C         C         1.0       0.5325508540727338  0.1924156494056758  0.1388626966273051 1.0000   
         H         H         1.0       0.5204724412579169  0.21389218859024597           0.1722371006337878 1.0000   
         H         H         1.0       0.5219798440204747  0.22734034871857645           0.13922238191595945          1.0000   
         H         H         1.0       0.5362719806386292  0.1788682551634727  0.15226513518159526          1.0000   
         H         H         1.0       0.5151992374841717  0.1903999891701019  0.1324301253459813 1.0000   
         C         C         1.0       0.669696453523416   0.15431982592471186           0.15232999948953835          1.0000   
         C         C         1.0       0.6809735580384305  0.1726654494842547  0.1349015248424102 1.0000   
         H         H         1.0       0.6505092765560272  0.15451253894720082           0.14971674028927417          1.0000   
         H         H         1.0       0.6717404001198183  0.1575950802271103  0.17403467719549745          1.0000   
         H         H         1.0       0.6787372456282823  0.16900439514485194           0.11288545709633815          1.0000   
         H         H         1.0       0.6990992776070201  0.17293208606764507           0.13990218597489767          1.0000   
         C         C         1.0       0.524600329828189   0.7909697587950735  0.3793373621390696 1.0000   
         C         C         1.0       0.5444819204331062  0.7723445805291722  0.37550691663879615          1.0000   
         H         H         1.0       0.5097199135482342  0.7847268763395651  0.3899696642202512 1.0000   
         H         H         1.0       0.5178272879779918  0.7948365407545562  0.35917561560872957          1.0000   
         H         H         1.0       0.5391609290544779  0.7602840947508471  0.359732716717175  1.0000   
         H         H         1.0       0.5593579263982263  0.7806319865288486  0.36722926683322127          1.0000   
         C         C         1.0       0.6156966041199144  0.029268358290833074         0.44622155325806984          1.0000   
         C         C         1.0       0.6309751849646248  0.020867273795474484         0.470458611830104  1.0000   
         H         H         1.0       0.5995109530883426  0.03526196157876349           0.4570718071748666 1.0000   
         H         H         1.0       0.624026914570859   0.0444387014637051  0.435646496810572  1.0000   
         H         H         1.0       0.6279248691880926  0.0031715533693914555        0.472625523205601  1.0000   
         H         H         1.0       0.6239526446260596  0.028320933560419537         0.4893683387516774 1.0000   
         C         C         1.0       0.5206060951734081  0.9186985020760077  0.2877088333519566 1.0000   
         C         C         1.0       0.5263871865867884  0.8992444169927221  0.308055989992179  1.0000   
         H         H         1.0       0.5047234369436894  0.9140678699354026  0.27612663752371036          1.0000   
         H         H         1.0       0.5150877505690648  0.9337612763538045  0.2993384677727377 1.0000   
         H         H         1.0       0.5120944652282219  0.8977445020960991  0.32154857037493717          1.0000   
         H         H         1.0       0.5423212890562161  0.9058938183448296  0.32015797059193357          1.0000   
         C         C         1.0       0.6102785419466623  0.014063251492708151         0.03827374232184422          1.0000   
         C         C         1.0       0.6077545846966599  0.03771585160138291           0.051582788543139024         1.0000   
         H         H         1.0       0.6299540253200465  0.011653623861914264         0.032731567293389885         1.0000   
         H         H         1.0       0.6007226215490206  0.014811741561619352         0.018762250935697056         1.0000   
         H         H         1.0       0.5912241214856437  0.03970816977222902           0.06031189918813147          1.0000   
         H         H         1.0       0.6076448924500396  0.05058971477965968           0.036029090636959804         1.0000   
         C         C         1.0       0.6010113735364091  0.8522634338684729  0.5280903067840603 1.0000   
         C         C         1.0       0.5722340639043156  0.8392664461937619  0.03611523636980096          1.0000   
         H         H         1.0       0.6070280757891742  0.8336730218380144  0.5259976669974676 1.0000   
         H         H         1.0       0.6180122365937685  0.8618074321637754  0.5265574912833569 1.0000   
         H         H         1.0       0.554618034801977   0.8331525445604655  0.03344383838129872          1.0000   
         H         H         1.0       0.5785055393779186  0.8275315115430274  0.05198542193429012          1.0000   
         C         C         1.0       0.6555298005997015  0.9111605138181641  0.28485192302015744          1.0000   
         C         C         1.0       0.6658124804765708  0.9248665990860107  0.26129059219338   1.0000   
         H         H         1.0       0.6442126085752071  0.8978169929425714  0.2758457530343757 1.0000   
         H         H         1.0       0.6696504814751552  0.9026858588278056  0.2962287356388876 1.0000   
         H         H         1.0       0.6796122485308801  0.9133181082732365  0.25259835274014747          1.0000   
         H         H         1.0       0.6749006040567995  0.9406231833636267  0.2696084348897304 1.0000   
         C         C         1.0       0.2929339376621872  0.04696389135979939           0.043487383310118366         1.0000   
         C         C         1.0       0.286598050816102   0.06720602057271008           0.026858512506133136         1.0000   
         H         H         1.0       0.2846346318302871  0.032025460040995046         0.03477332239038833          1.0000   
         H         H         1.0       0.2867284201329178  0.04683584566106758           0.06537657327798173          1.0000   
         H         H         1.0       0.2920735200280543  0.06123520016271189           0.0066266095954423685        1.0000   
         H         H         1.0       0.296306202618926   0.08345366018998979           0.03299182283876445          1.0000   
         C         C         1.0       0.5248114366021411  0.12030368442941064           0.48774932511158425          1.0000   
         C         C         1.0       0.5466450681284819  0.1242986090532741  0.47085204139158077          1.0000   
         H         H         1.0       0.5188083572543877  0.1364752539499507  0.49546407499637285          1.0000   
         H         H         1.0       0.530394285404168   0.10933708917376991           0.5033068789467117 1.0000   
         H         H         1.0       0.5431971187712626  0.13436119437975652           0.45366148099120945          1.0000   
         H         H         1.0       0.5543964941554963  0.10673066944334236           0.46373282344127525          1.0000   
         C         C         1.0       0.4868830573403199  0.9695900267439995  0.4053678279858024 1.0000   
         C         C         1.0       0.49251645021300655           0.9601650809945897 0.4337335312513951 1.0000   
         H         H         1.0       0.4749336823859191  0.9578473670148401  0.3952651675317815 1.0000   
         H         H         1.0       0.5023955256968315  0.9684726962847406  0.39329554362445146          1.0000   
         H         H         1.0       0.5008920378637918  0.9745765573910653  0.44557535496814715          1.0000   
         H         H         1.0       0.47759967472434384           0.9567872730172112 0.4469694990261614 1.0000   
         C         C         1.0       0.4717137561330576  0.9801679649790803  0.07373743424254149          1.0000   
         C         C         1.0       0.4491133518942462  0.9746050077905326  0.08701574336678213          1.0000   
         H         H         1.0       0.4772389231061728  0.9981176202979755  0.07877850703100125          1.0000   
         H         H         1.0       0.46915023358597635           0.981571987021839  0.05140775551957555          1.0000   
         H         H         1.0       0.4498947604193582  0.9753050252836857  0.1093002243558216 1.0000   
         H         H         1.0       0.4418869285858315  0.9575522887581799  0.07935216467725732          1.0000   
         C         C         1.0       0.34103753395129494           0.9933831079213282 0.2506526048723439 1.0000   
         C         C         1.0       0.3533259431497166  0.010009930250265864         0.23104984232057085          1.0000   
         H         H         1.0       0.35133672946493344           0.9892886691379468 0.2694996564737887 1.0000   
         H         H         1.0       0.33809337416643787           0.9760557835545957 0.2404986969714956 1.0000   
         H         H         1.0       0.3569635446494009  0.9997372032242139  0.21161343207594843          1.0000   
         H         H         1.0       0.34103072727552924           0.023564780707744593         0.22465166732482525          1.0000   
         C         C         1.0       0.5160787883950942  0.18716692389400488           0.2499329777668857 1.0000   
         C         C         1.0       0.5332245707397578  0.20555273087147413           0.23879629647519338          1.0000   
         H         H         1.0       0.5009473971857729  0.19821218009977842           0.2566087696328446 1.0000   
         H         H         1.0       0.5226304580254286  0.1790328163880202  0.26893366639236016          1.0000   
         H         H         1.0       0.5234264577385778  0.220781684904361   0.23422497345083934          1.0000   
         H         H         1.0       0.5423036172507801  0.19964668656794163           0.2190672927129185 1.0000   
         C         C         1.0       0.5605700759248411  0.050504475097537194         0.14386341477704861          1.0000   
         C         C         1.0       0.5731874545626371  0.04589694426762114           0.17178283168332967          1.0000   
         H         H         1.0       0.5555002943709191  0.03336905951192248           0.13383504300904955          1.0000   
         H         H         1.0       0.57263043246063    0.059920527244414545         0.12985176729348138          1.0000   
         H         H         1.0       0.5657458182672769  0.054425369612625785         0.19047661967714088          1.0000   
         H         H         1.0       0.5904685509862889  0.05330355568817802           0.170471718081155  1.0000   
         C         C         1.0       0.4154927459816969  0.13919680510251814           0.34022057383783877          1.0000   
         C         C         1.0       0.40281138803765315           0.12896896844362504          0.3657034290749935 1.0000   
         H         H         1.0       0.40303142320075164           0.15259100146353902          0.33151113431932067          1.0000   
         H         H         1.0       0.43053737364811673           0.1504832502952035 0.3451605673117415 1.0000   
         H         H         1.0       0.3850437877495008  0.12261120915547674           0.36091807127661557          1.0000   
         H         H         1.0       0.400163783293105   0.14412310646114038           0.3804407092466844 1.0000   
         C         C         1.0       0.442499785896204   0.1477334579104284  0.07789807204995335          1.0000   
         C         C         1.0       0.4442376119130127  0.13344056364902424           0.05273590257239303          1.0000   
         H         H         1.0       0.4239819510962912  0.14847230136929804           0.08349691816653759          1.0000   
         H         H         1.0       0.4472629895464075  0.1666911115164555  0.07479586267777653          1.0000   
         H         H         1.0       0.4633712624084925  0.12933597851205597           0.04897168325045986          1.0000   
         H         H         1.0       0.4403156639901178  0.14417069377085204           0.03381583213598405          1.0000   
         C         C         1.0       0.5185360181877666  0.009276718151084884         0.3163776503484288 1.0000   
         C         C         1.0       0.49688288611827636           0.9943499829449423 0.3083659743598228 1.0000   
         H         H         1.0       0.5128247443217447  0.022798663795660756         0.33089369175296196          1.0000   
         H         H         1.0       0.5254219677500551  0.018193918023819755         0.29778770491739903          1.0000   
         H         H         1.0       0.5015817920592508  0.98014092563938    0.29470775411815836          1.0000   
         H         H         1.0       0.48942140562872954           0.9847381673364359 0.32478911189674003          1.0000   
         C         C         1.0       0.46384867680976655           0.1306532465553319 0.767696896019879  1.0000   
         C         C         1.0       0.44441989465545456           0.13025775716433327          0.7516565605014376 1.0000   
         C         C         1.0       0.4418810622945063  0.1150978503567951  0.7303405732288254 1.0000   
         C         C         1.0       0.4590845179970713  0.10069008259782404           0.7224756670754465 1.0000   
         C         C         1.0       0.47911113854523146           0.10090701202514801          0.7376460545253762 1.0000   
         C         C         1.0       0.4812711409014658  0.11690975006637469           0.7594414134551734 1.0000   
         H         H         1.0       0.4296754732800067  0.14043490532703587           0.7573171261702852 1.0000   
         H         H         1.0       0.4261925301990716  0.11597184954921733           0.7204454738157784 1.0000   
         H         H         1.0       0.4932134534699906  0.08938967701154683           0.7328007225779034 1.0000   
         H         H         1.0       0.49670050271551    0.11614383548379363           0.7703596819836669 1.0000   
         C         C         1.0       0.4979949586044912  0.0856743196479678  0.6782798719640568 1.0000   
         C         C         1.0       0.4778869805603658  0.07329680491252515           0.6811785826926884 1.0000   
         C         C         1.0       0.47702914623163967           0.05214047994846971          0.6665386971653697 1.0000   
         C         C         1.0       0.4951247994699799  0.043971467023804944         0.6513115204569001 1.0000   
         C         C         1.0       0.5146983161657054  0.05734418523159479           0.6493243141166742 1.0000   
         C         C         1.0       0.5164960266977888  0.0779877824984916  0.6624977117172148 1.0000   
         C         C         1.0       0.45570338445774916           0.08362301656431188          0.6975018801423355 1.0000   
         C         C         1.0       0.44381070082589513           0.09759324906552934          0.6739111397875965 1.0000   
         C         C         1.0       0.42773941955836475           0.08748721191060926          0.6576147843130626 1.0000   
         C         C         1.0       0.4171523645866252  0.09881025741024378           0.636531886892252  1.0000   
         C         C         1.0       0.42117229588987337           0.12185632441390351          0.6328519708971427 1.0000   
         C         C         1.0       0.43620083672435156           0.1337300096017106 0.6498588173053336 1.0000   
         C         C         1.0       0.4485664160289032  0.1209144125105903  0.6687355320487525 1.0000   
         C         C         1.0       0.4555717697948342  0.047523464155435444         0.7250106494220707 1.0000   
         C         C         1.0       0.4476237220731844  0.03496575057618421           0.7463133164223429 1.0000   
         C         C         1.0       0.4246145627388557  0.03539640013051345           0.7549770237042926 1.0000   
         C         C         1.0       0.4106794997320584  0.047549719860465654         0.7381825528487758 1.0000   
         C         C         1.0       0.41866939879628756           0.06161347871051908          0.718590790454384  1.0000   
         C         C         1.0       0.44233071967572585           0.06363681723790424          0.7114076494488916 1.0000   
         C         C         1.0       0.4171199888182844  0.029556592654877756         0.7859198973293875 1.0000   
         C         C         1.0       0.4767756886426998  0.9982520782965619  0.8221455784758243 1.0000   
         C         C         1.0       0.46511881726774457           0.014572323655498876         0.8368770197017246 1.0000   
         C         C         1.0       0.4456599505901873  0.02339833571030514           0.8257335719237995 1.0000   
         C         C         1.0       0.43772446147125516           0.016306995403331692         0.799939690859648  1.0000   
         C         C         1.0       0.4475906167008288  0.9971154749282308  0.789215118303776  1.0000   
         C         C         1.0       0.46656297242906447           0.9872064733721587 0.7999789659526303 1.0000   
         C         C         1.0       0.39525636319120605           0.014196567593546927         0.7920784686707883 1.0000   
         C         C         1.0       0.38484595227022556           0.0024925120915411103        0.771094620744736  1.0000   
         C         C         1.0       0.36690764592095526           0.9878472806866273 0.7761023042894929 1.0000   
         C         C         1.0       0.3608904504697528  0.983334871510225   0.8018841952034974 1.0000   
         C         C         1.0       0.37116287780045576           0.9943388486346036 0.8231193876218268 1.0000   
         C         C         1.0       0.3876996526300905  0.010954582188538398         0.8186119565910633 1.0000   
         C         C         1.0       0.3908004165895036  0.0639796966543738  0.7988276770043583 1.0000   
         C         C         1.0       0.38718475540492414           0.08664331538080165          0.8066290959538706 1.0000   
         C         C         1.0       0.4054207966804876  0.1003250403964778  0.8141527712134209 1.0000   
         C         C         1.0       0.42756882826023057           0.09261730258665017          0.810279117966695  1.0000   
         C         C         1.0       0.43069664979351774           0.07032590305272081          0.8019760363924675 1.0000   
         C         C         1.0       0.4130487270006739  0.05456056429434857           0.7976585421546336 1.0000   
         H         H         1.0       0.497947442835184   0.10275201365044455           0.6854637244732209 1.0000   
         H         H         1.0       0.4615950965238861  0.03954180770702509           0.6690654595800214 1.0000   
         H         H         1.0       0.49456982849518893           0.027337807253152935         0.6422764279869673 1.0000   
         H         H         1.0       0.530494930359627   0.09058472543944236           0.6606635953143697 1.0000   
         H         H         1.0       0.4248749395179458  0.06876953704997965           0.6581749065051957 1.0000   
         H         H         1.0       0.4059338392652624  0.08891786663209038           0.6223293089714933 1.0000   
         H         H         1.0       0.4416892939506892  0.15040966044957207           0.6455567892120619 1.0000   
         H         H         1.0       0.4607856766376229  0.13123858311070186           0.6807950324574209 1.0000   
         H         H         1.0       0.474773695699159   0.047137001300289146         0.7222526238832611 1.0000   
         H         H         1.0       0.4607807512335986  0.023986517601394697         0.755539746540424  1.0000   
         H         H         1.0       0.3929454471132534  0.04853460629684223           0.7448398884978235 1.0000   
         H         H         1.0       0.40537035685663003           0.07132346504942588          0.7080441430785512 1.0000   
         H         H         1.0       0.4705843874280635  0.020413729466100428         0.8577201098895625 1.0000   
         H         H         1.0       0.43729022983232685           0.03748791612007363          0.837507559239446  1.0000   
         H         H         1.0       0.43909685620152045           0.9883984892379064 0.7730868379056763 1.0000   
         H         H         1.0       0.47323182429754285           0.9722583500114763 0.7900357129355284 1.0000   
         H         H         1.0       0.3912645369383933  0.002460738518671013         0.7501101064569095 1.0000   
         H         H         1.0       0.35972609304568715           0.9805755898156986 0.7578417778934091 1.0000   
         H         H         1.0       0.3673618346087723  0.9911350470719675  0.8439400424715222 1.0000   
         H         H         1.0       0.39398071162139897           0.02130162928221435          0.8363453599325537 1.0000   
         H         H         1.0       0.37579945572270296           0.05408524912879687          0.7943327553263407 1.0000   
         H         H         1.0       0.3695805880661895  0.09229756385453122           0.8091495089707464 1.0000   
         H         H         1.0       0.4420942047357774  0.10294152760142967           0.8170028188210511 1.0000   
         H         H         1.0       0.4484973418037301  0.06557590511880967           0.8017130602812585 1.0000   
         C         C         1.0       0.48401465210976335           0.10690653278106431          0.987815988490934  1.0000   
         C         C         1.0       0.466212361829519   0.11729472538627066           0.9731605647613621 1.0000   
         C         C         1.0       0.45148947026654795           0.10261096335217959          0.9585873448680837 1.0000   
         C         C         1.0       0.4555585174338574  0.07894972712547785           0.9539133070855448 1.0000   
         C         C         1.0       0.47509037698231255           0.07062312910814936          0.9654582928943134 1.0000   
         C         C         1.0       0.4887071914724364  0.08383144802433941           0.982597812072778  1.0000   
         H         H         1.0       0.4633632367744814  0.1348048944147362  0.9745933806860367 1.0000   
         H         H         1.0       0.43603794524096906           0.11021096583754762          0.9528831988713784 1.0000   
         H         H         1.0       0.48021051492844335           0.052282092981720846         0.9647111683634357 1.0000   
         H         H         1.0       0.5031711163876504  0.07582268713664572           0.9913878478077457 1.0000   
         C         C         1.0       0.4730495396937073  0.03802938914857035           0.9139280585906386 1.0000   
         C         C         1.0       0.44973238210153726           0.039318609901238366         0.9205601073100983 1.0000   
         C         C         1.0       0.4367453836945407  0.019572358128332246         0.917887851715489  1.0000   
         C         C         1.0       0.44716157772641085           0.9987573571502771 0.9098260056992802 1.0000   
         C         C         1.0       0.4700118775112836  0.9966585433117028  0.9064838869850149 1.0000   
         C         C         1.0       0.48317653750062844           0.01679203575322541          0.9079786069128066 1.0000   
         C         C         1.0       0.4389831288577453  0.06250101333136548           0.9349188118147136 1.0000   
         C         C         1.0       0.42727772929374686           0.0740785440333987 0.9096405771292773 1.0000   
         C         C         1.0       0.40450916201748705           0.07023228994513896          0.9015230267924088 1.0000   
         C         C         1.0       0.39474061253594306           0.0851013882251063 0.8837936216828658 1.0000   
         C         C         1.0       0.40655294456677865           0.10488901830530022          0.875411501522393  1.0000   
         C         C         1.0       0.42936529556583247           0.10813094779215375          0.8808367718861659 1.0000   
         C         C         1.0       0.4395735659746206  0.0916270614220742  0.8963640992543391 1.0000   
         C         C         1.0       0.4304827169129192  0.03975077093916757           0.9778903914575446 1.0000   
         C         C         1.0       0.41996455605574157           0.035179465057152415         0.000946340767933096         1.0000   
         C         C         1.0       0.40077356562151406           0.04704374466097616          0.009394770554431497         1.0000   
         C         C         1.0       0.39118950897982796           0.06269975430696981          0.9916945443724559 1.0000   
         C         C         1.0       0.4023782170229924  0.0671676459623988  0.9672256443464209 1.0000   
         C         C         1.0       0.42206363308546796           0.05586669939963066          0.9602807124113456 1.0000   
         C         C         1.0       0.40298963126048315           0.0404876660013509 0.5354854474187947 1.0000   
         C         C         1.0       0.44148606330085527           0.9864436801280421 0.5706333945030528 1.0000   
         C         C         1.0       0.4314286536364312  0.0022927605545006724        0.5877082409424579 1.0000   
         C         C         1.0       0.41668797180828365           0.018507433433767373         0.5777274430170307 1.0000   
         C         C         1.0       0.41047748990922117           0.01783727027041415          0.550048015238262  1.0000   
         C         C         1.0       0.4172331100243869  0.9982781180095703  0.5350636555725556 1.0000   
         C         C         1.0       0.43235656070742595           0.9833723105533732 0.544916496396389  1.0000   
         C         C         1.0       0.37644124277466257           0.034418341490373816         0.5316898424486475 1.0000   
         C         C         1.0       0.36767965698385346           0.021072745868782272         0.5090563907328981 1.0000   
         C         C         1.0       0.3448770144588755  0.015710327794852263         0.5069016395813757 1.0000   
         C         C         1.0       0.3299117719868564  0.0250255542998854  0.526629329962095  1.0000   
         C         C         1.0       0.33813685594647536           0.03736533387535368          0.5488984497159918 1.0000   
         C         C         1.0       0.360991296869859   0.03912772706173717           0.5528272491599947 1.0000   
         C         C         1.0       0.3943554200012149  0.0821483592828331  0.5474312750273137 1.0000   
         C         C         1.0       0.40073522369455233           0.10389139202087729          0.5567301456895901 1.0000   
         C         C         1.0       0.42074669988614444           0.10727063942127994          0.5705270607946594 1.0000   
         C         C         1.0       0.4364652381555406  0.09023476394715146           0.5708568676313172 1.0000   
         C         C         1.0       0.42992032728489327           0.0686624272588371 0.5614751992519159 1.0000   
         C         C         1.0       0.4087515411640902  0.06413738128423473           0.5502705240089266 1.0000   
         H         H         1.0       0.48369639234263284           0.053071787882590676         0.9184777404702343 1.0000   
         H         H         1.0       0.4188088640831362  0.01932048124477248           0.9223205827232331 1.0000   
         H         H         1.0       0.4362002702829498  0.9840235919567525  0.9067724073384814 1.0000   
         H         H         1.0       0.5010421197820427  0.015348528691830676         0.9089415564454425 1.0000   
         H         H         1.0       0.39418211126102126           0.05610491456933975          0.9108276562282166 1.0000   
         H         H         1.0       0.37861655415543244           0.081656019293199  0.8761417773207311 1.0000   
         H         H         1.0       0.436241950881948   0.12279326404878    0.8718976424475373 1.0000   
         H         H         1.0       0.4570625200413538  0.09584732123856675           0.9010543094430987 1.0000   
         H         H         1.0       0.44615712306206745           0.030724189554498738         0.9739607577812102 1.0000   
         H         H         1.0       0.4477107402418261  0.028734773163403782         0.5171759910210579 1.0000   
         H         H         1.0       0.3783098278206583  0.07580667474572876           0.998206117970581  1.0000   
         H         H         1.0       0.39708522714695804           0.0829161539836315 0.9559186219585117 1.0000   
         H         H         1.0       0.43687271937071925           0.00392183006453517          0.6084660556138348 1.0000   
         H         H         1.0       0.4098418918830535  0.030637992993522545         0.5912738892274464 1.0000   
         H         H         1.0       0.412257053965949   0.9947057233280885  0.5138785514489996 1.0000   
         H         H         1.0       0.43965126551667005           0.9699624284037738 0.5328449980591449 1.0000   
         H         H         1.0       0.3621895986052222  0.02315074043495935           0.008665374516439561         1.0000   
         H         H         1.0       0.32039867973775504           0.024468853900232457         0.009774807842575228         1.0000   
         H         H         1.0       0.3272862558976084  0.04045337365287849           0.5664589415840501 1.0000   
         H         H         1.0       0.3658852020874243  0.04546339987769854           0.5709160952213506 1.0000   
         H         H         1.0       0.3797213473947265  0.08147666546639488           0.5342866898400378 1.0000   
         H         H         1.0       0.38877891091967454           0.11683431687342798          0.5514732377791679 1.0000   
         H         H         1.0       0.45215401448235326           0.09359955327398264          0.5794416868497942 1.0000   
         H         H         1.0       0.4430172593130252  0.05614199901168275           0.5614386800338238 1.0000   
         C         C         1.0       0.588141475147035   0.883236289267805   0.5656840063684531 1.0000   
         C         C         1.0       0.606043752265713   0.8990517222691589  0.5670888637105257 1.0000   
         C         C         1.0       0.6012574627006653  0.9216126869265192  0.5750570286304828 1.0000   
         C         C         1.0       0.5798132172384783  0.9288470125315401  0.5823380636584633 1.0000   
         C         C         1.0       0.562531485132003   0.9121740738894314  0.580973265009578  1.0000   
         C         C         1.0       0.5658727289796318  0.8894366395078132  0.5730892583297664 1.0000   
         H         H         1.0       0.6241597052201658  0.8937004518220316  0.5620177992251023 1.0000   
         H         H         1.0       0.6157245491750332  0.9331807491720913  0.5755798746409047 1.0000   
         H         H         1.0       0.5450201793249005  0.9163730997597571  0.5870131785973547 1.0000   
         H         H         1.0       0.5522768975299228  0.8764870033510328  0.5721707714676594 1.0000   
         C         C         1.0       0.5396506211572006  0.9574415112192866  0.5599254595709344 1.0000   
         C         C         1.0       0.5497146780692881  0.9637985951187901  0.5847291340880452 1.0000   
         C         C         1.0       0.5379484005883525  0.9789713151153842  0.6013763500104067 1.0000   
         C         C         1.0       0.5167070604375665  0.9863810437284484  0.595476258646402  1.0000   
         C         C         1.0       0.5059002171963369  0.9785973824496472  0.572109451592499  1.0000   
         C         C         1.0       0.5175375758230607  0.9642291512553289  0.5545634278296252 1.0000   
         C         C         1.0       0.5753394102857577  0.9549185270623949  0.5918786715972212 1.0000   
         C         C         1.0       0.5892332013250456  0.9752124789109076  0.5779683825662892 1.0000   
         C         C         1.0       0.5941584981902311  0.9947782112676884  0.5929819721496714 1.0000   
         C         C         1.0       0.608819662347599   0.01057107570384308           0.5824192576162217 1.0000   
         C         C         1.0       0.6203974648128985  0.007164893450450016         0.5583466578333196 1.0000   
         C         C         1.0       0.6147361575097006  0.9881596188751902  0.543227195213083  1.0000   
         C         C         1.0       0.5985281818588525  0.9725026084322521  0.5531269990647064 1.0000   
         C         C         1.0       0.5646723004387098  0.9438395807497736  0.6414320728657462 1.0000   
         C         C         1.0       0.5679606455270964  0.9452821624836297  0.6686164137340262 1.0000   
         C         C         1.0       0.5891155445514409  0.9528331621078812  0.6781688285847253 1.0000   
         C         C         1.0       0.6067176047011664  0.955470852932634   0.6603513611005078 1.0000   
         C         C         1.0       0.6029447954350499  0.9533293596607476  0.6327206409198457 1.0000   
         C         C         1.0       0.5813304058502525  0.9506462174140167  0.6225323121537184 1.0000   
         C         C         1.0       0.5888967515838667  0.9657232066214886  0.7075219312419393 1.0000   
         C         C         1.0       0.5649469658499832  0.02718074921505642           0.6692373567290539 1.0000   
         C         C         1.0       0.5494553354787323  0.012373093262260548         0.6795816025521672 1.0000   
         C         C         1.0       0.5571077704353664  0.9935141148832631  0.6943962903308382 1.0000   
         C         C         1.0       0.5804243209524576  0.9900774121984189  0.6993531500106284 1.0000   
         C         C         1.0       0.5948767783027542  0.006198080382091131         0.689435999690494  1.0000   
         C         C         1.0       0.5873699270724256  0.026159678080801774         0.6768477983625142 1.0000   
         C         C         1.0       0.6132200655564908  0.9664445134720275  0.7230688236803239 1.0000   
         C         C         1.0       0.628482058986328   0.9485926054499899  0.7209458077786169 1.0000   
         C         C         1.0       0.6469867049890871  0.9472878551340878  0.7369772468720643 1.0000   
         C         C         1.0       0.6535741130121402  0.9649022336872455  0.753976791939973  1.0000   
         C         C         1.0       0.6384018096178775  0.9824784278073249  0.757401410800013  1.0000   
         C         C         1.0       0.6185114638893564  0.9838100724175487  0.7426021111108797 1.0000   
         C         C         1.0       0.5639409143529394  0.9646118316525182  0.7511319385265572 1.0000   
         C         C         1.0       0.5492397205186442  0.9541478820865756  0.7694251616170634 1.0000   
         C         C         1.0       0.5476221177324886  0.9298872444368643  0.7667553516516719 1.0000   
         C         C         1.0       0.5594742686765226  0.9178901215614688  0.7463816290101424 1.0000   
         C         C         1.0       0.5741036960258752  0.9293230674423639  0.7305154196026568 1.0000   
         C         C         1.0       0.575008766030671   0.9528807768792218  0.7294392544456835 1.0000   
         H         H         1.0       0.54871914812538    0.9468949242810396  0.5458318145913424 1.0000   
         H         H         1.0       0.5458916658435042  0.9884152982679322  0.619131439555926  1.0000   
         H         H         1.0       0.5083145123678472  0.0023496758717735933        0.6055516862373885 1.0000   
         H         H         1.0       0.5094236072362848  0.9588595867007585  0.5361091937937468 1.0000   
         H         H         1.0       0.586635158221386   0.9985827113185376  0.6110367687225854 1.0000   
         H         H         1.0       0.6115159152651655  0.0263602262383682  0.5928531361282909 1.0000   
         H         H         1.0       0.6227632745513592  0.9832715792378122  0.5246720490495391 1.0000   
         H         H         1.0       0.5930778142473521  0.9580250766957008  0.5402322339640908 1.0000   
         H         H         1.0       0.5481398765776144  0.9375192409381963  0.6360332666882298 1.0000   
         H         H         1.0       0.5536286571431548  0.9424633213075123  0.6815542798746845 1.0000   
         H         H         1.0       0.6227544346460533  0.9606962058751357  0.6685081749961271 1.0000   
         H         H         1.0       0.6181645334726104  0.9575097639262944  0.6195937584823001 1.0000   
         H         H         1.0       0.5307677716255645  0.013081591181581809         0.6770848006192907 1.0000   
         H         H         1.0       0.5454358596956278  0.9803913055981222  0.7004001092857686 1.0000   
         H         H         1.0       0.6132061583560636  0.004101767098563247         0.6895018413983136 1.0000   
         H         H         1.0       0.600104052144818   0.03792304597974239           0.6673730352674934 1.0000   
         H         H         1.0       0.6250199089157716  0.932902028362148   0.7092035686547837 1.0000   
         H         H         1.0       0.6556738709383827  0.9312924681797177  0.7332017840290195 1.0000   
         H         H         1.0       0.6418398031459739  0.9968025269155538  0.7702808460817073 1.0000   
         H         H         1.0       0.6064198599522492  0.9976454076498388  0.745445287601583  1.0000   
         H         H         1.0       0.5641065114326214  0.9831001491039522  0.7521360079078712 1.0000   
         H         H         1.0       0.5415423625891322  0.9627864888221301  0.7865656991210206 1.0000   
         H         H         1.0       0.5581688316602351  0.9005342737756286  0.7411964535519759 1.0000   
         H         H         1.0       0.5822501431800905  0.9182033188078335  0.7148290732296323 1.0000   
         C         C         1.0       0.6513435181291986  0.947251449530502   0.8157766413746603 1.0000   
         C         C         1.0       0.6571293691082614  0.9528974839385158  0.8411329726337373 1.0000   
         C         C         1.0       0.6409440501809607  0.957782459106635   0.8617576581644506 1.0000   
         C         C         1.0       0.6185135654002675  0.9600228489109732  0.855981505002919  1.0000   
         C         C         1.0       0.6128433970922844  0.9561523928255145  0.8289790544141546 1.0000   
         C         C         1.0       0.6281691079544046  0.9482104574582543  0.8095305464504782 1.0000   
         H         H         1.0       0.6743871913397156  0.9519822672899872  0.8470301094327334 1.0000   
         H         H         1.0       0.648326979224815   0.9610998075982233  0.8821065869154069 1.0000   
         H         H         1.0       0.5949768484251945  0.955236609747354   0.8215283287414654 1.0000   
         H         H         1.0       0.6219479867969588  0.944422186265911   0.7884105119075933 1.0000   
         C         C         1.0       0.579630193013557   0.9969984701016934  0.8423361632446902 1.0000   
         C         C         1.0       0.5792448659875631  0.9837736847198647  0.8667084365689312 1.0000   
         C         C         1.0       0.5585392245453222  0.9830691234481667  0.8815704341397066 1.0000   
         C         C         1.0       0.5403266984628348  0.9954759589599941  0.8733614022219083 1.0000   
         C         C         1.0       0.5396954565285135  0.006339459126920577         0.8488590048207881 1.0000   
         C         C         1.0       0.5604619478971806  0.00831820233494307           0.8339675200293524 1.0000   
         C         C         1.0       0.5991575918954019  0.9673293399793974  0.8767836225258541 1.0000   
         C         C         1.0       0.6084634222914188  0.9830174083511835  0.9017067012348815 1.0000   
         C         C         1.0       0.5999567573205236  0.9808962057866552  0.9274141559833287 1.0000   
         C         C         1.0       0.6074394112232218  0.9949000157348279  0.9500214299289502 1.0000   
         C         C         1.0       0.6235615840651163  0.011806846444816221         0.945212892628556  1.0000   
         C         C         1.0       0.6330456840110751  0.01468368714223578           0.9193611170157178 1.0000   
         C         C         1.0       0.624410096548131   0.0005499577084946417        0.8981321385441067 1.0000   
         C         C         1.0       0.5722810284217613  0.931695939553131   0.8688625172647839 1.0000   
         C         C         1.0       0.5619527980087203  0.9116172699757743  0.8769763052450059 1.0000   
         C         C         1.0       0.5679180723055118  0.9006744291802613  0.8998886297271632 1.0000   
         C         C         1.0       0.5872972856950585  0.9081658199548533  0.9117083124044649 1.0000   
         C         C         1.0       0.5976691173652575  0.9286928774537183  0.9043949701121742 1.0000   
         C         C         1.0       0.5896145329803226  0.9413885405120865  0.8839698337356007 1.0000   
         C         C         1.0       0.5478138222306511  0.8833859179230091  0.9114657020297569 1.0000   
         C         C         1.0       0.4948971986067356  0.9362735058733395  0.9267923190243388 1.0000   
         C         C         1.0       0.4926993990643953  0.9207517419779654  0.9061536951356276 1.0000   
         C         C         1.0       0.5083335785150174  0.9039504999783067  0.9009671016662255 1.0000   
         C         C         1.0       0.5266896082266118  0.9017369011898518  0.9191800700060895 1.0000   
         C         C         1.0       0.527551350436295   0.9167319524557105  0.9412741365386966 1.0000   
         C         C         1.0       0.5103861066847558  0.9322864371349895  0.9454404684472469 1.0000   
         C         C         1.0       0.5557650334811391  0.8692218095169566  0.9366077185686457 1.0000   
         C         C         1.0       0.5764570285644637  0.8581709114603875  0.9370884850048737 1.0000   
         C         C         1.0       0.584800465174504   0.8476252798397221  0.959760302466778  1.0000   
         C         C         1.0       0.5715249286278438  0.8451004237495676  0.9816462526445122 1.0000   
         C         C         1.0       0.5489987170925864  0.8540344703428946  0.9833005134940146 1.0000   
         C         C         1.0       0.5416739941664723  0.8669659153912129  0.9599222312915621 1.0000   
         C         C         1.0       0.5212184069220508  0.8510936517904563  0.8951914018466515 1.0000   
         C         C         1.0       0.5180591200133909  0.8305212916719805  0.8806316011490293 1.0000   
         C         C         1.0       0.5339133135830607  0.8218848334813383  0.8627276864842321 1.0000   
         C         C         1.0       0.5532256535918332  0.8343143752579698  0.8579889171668664 1.0000   
         C         C         1.0       0.555968236654384   0.8553795526831063  0.8715573094486468 1.0000   
         C         C         1.0       0.5410799547135747  0.8632908421598318  0.8904481965999756 1.0000   
         H         H         1.0       0.5957757169636191  0.9991296082127179  0.8299296785532919 1.0000   
         H         H         1.0       0.5566401356751337  0.972513779203382   0.8995832564239907 1.0000   
         H         H         1.0       0.5242702763055253  0.9942677653218653  0.882614769767049  1.0000   
         H         H         1.0       0.5595784113589225  0.016487039524717417         0.8145111649677763 1.0000   
         H         H         1.0       0.5867892775817967  0.9673909761664593  0.9305301065537864 1.0000   
         H         H         1.0       0.6024807386074593  0.9934385332846477  0.9715374271977909 1.0000   
         H         H         1.0       0.6448111357177498  0.028106763117977884         0.915051926014013  1.0000   
         H         H         1.0       0.6321714055290812  0.0023848696580439643        0.8784157113429879 1.0000   
         H         H         1.0       0.5650707622588516  0.9415111844867953  0.8530522983378254 1.0000   
         H         H         1.0       0.546485314699254   0.9067785725682176  0.8656251207761085 1.0000   
         H         H         1.0       0.5950092232530755  0.8987668994012186  0.9286730824313595 1.0000   
         H         H         1.0       0.6125620596110177  0.9347494139719177  0.9152299671627998 1.0000   
         H         H         1.0       0.4797607246104416  0.9242583675034255  0.8917581525814585 1.0000   
         H         H         1.0       0.507748045148217   0.8937151029378846  0.8831103075595623 1.0000   
         H         H         1.0       0.5397437359112766  0.9138187413903328  0.9570850904901245 1.0000   
         H         H         1.0       0.5116702296792629  0.942587677943903   0.964581350536968  1.0000   
         H         H         1.0       0.5884105384936594  0.8578267573126998  0.9191908799907504 1.0000   
         H         H         1.0       0.60050388256041    0.8389238692272211  0.9582576135262252 1.0000   
         H         H         1.0       0.5392525938977984  0.8527530137471654  0.0017812162032073697        1.0000   
         H         H         1.0       0.5245015930819001  0.8725181625507028  0.9611780505913542 1.0000   
         H         H         1.0       0.5093861691768453  0.8577766823050016  0.9104784795646126 1.0000   
         H         H         1.0       0.5004012809260747  0.8219911322165347  0.8828027100247979 1.0000   
         H         H         1.0       0.5660296888967935  0.8284565142490321  0.8440295386050433 1.0000   
         H         H         1.0       0.5698190697046349  0.8653180026667898  0.8655970194710284 1.0000   
         C         C         1.0       0.5035407874211907  0.175871587881912   0.7890555263696942 1.0000   
         C         C         1.0       0.5056906590036845  0.19593496970228452           0.8041065783882873 1.0000   
         C         C         1.0       0.5259094365893441  0.20339681419148006           0.8151108118718983 1.0000   
         C         C         1.0       0.5456295298354653  0.18968902711382282           0.8118020771778736 1.0000   
         C         C         1.0       0.5437657005930177  0.1688172052112722  0.7975424492654906 1.0000   
         C         C         1.0       0.5232031221817034  0.1632141480737042  0.785069867592093  1.0000   
         H         H         1.0       0.4921257890022534  0.20781874770799427           0.8048791843905473 1.0000   
         H         H         1.0       0.5256022686596569  0.21941415424926844           0.825903384871462  1.0000   
         H         H         1.0       0.5584523190231022  0.1597738510145673  0.791673350363836  1.0000   
         H         H         1.0       0.5221527280554457  0.1467154662190834  0.7746475813505173 1.0000   
         C         C         1.0       0.5752888525309517  0.16359015422183315           0.8492047429011702 1.0000   
         C         C         1.0       0.5859105397117301  0.18166166390602467           0.8351694982957873 1.0000   
         C         C         1.0       0.6094885372828955  0.18321847171138322           0.835594016832438  1.0000   
         C         C         1.0       0.6214668713534307  0.1657349690604775  0.8463537257810433 1.0000   
         C         C         1.0       0.6109282890500013  0.147650296610391   0.8600305255155947 1.0000   
         C         C         1.0       0.5874329611303377  0.14711730926968788           0.8613596378549401 1.0000   
         C         C         1.0       0.5709228113226673  0.20019813649784993           0.81947926989615   1.0000   
         C         C         1.0       0.571926215014349   0.22127179197609503           0.8409551994949799 1.0000   
         C         C         1.0       0.5876993326591243  0.23870720504520015           0.8369217503253743 1.0000   
         C         C         1.0       0.5865747030721576  0.25951495031325206           0.850930442647466  1.0000   
         C         C         1.0       0.5716633589240003  0.26100928406962304           0.872818212160592  1.0000   
         C         C         1.0       0.5581436479251951  0.24202788638056652           0.8799101571260064 1.0000   
         C         C         1.0       0.5596631698492701  0.2220196361505047  0.8643696297389819 1.0000   
         C         C         1.0       0.5917106734363807  0.18982160961129085           0.7741311594286429 1.0000   
         C         C         1.0       0.5990196284024534  0.19507347446561193           0.7488315027635587 1.0000   
         C         C         1.0       0.597421886509256   0.21723855496024108           0.7389030119807447 1.0000   
         C         C         1.0       0.5824611851961535  0.23135788187125156           0.7533961163729428 1.0000   
         C         C         1.0       0.5749184048242157  0.2266106598425278  0.7786302381670082 1.0000   
         C         C         1.0       0.5797622735060749  0.20522116916750027           0.7894725588197457 1.0000   
         C         C         1.0       0.6078227956465908  0.22350261021579124           0.7093872070935534 1.0000   
         C         C         1.0       0.6688816082985256  0.1855142343413751  0.686611252188996  1.0000   
         C         C         1.0       0.6566632939397616  0.19557931791662858           0.6664998292362628 1.0000   
         C         C         1.0       0.638017687410997   0.20808566504263973           0.6744496038140351 1.0000   
         C         C         1.0       0.6315052255402748  0.21170271956903583           0.7009438066223163 1.0000   
         C         C         1.0       0.6472708595652868  0.2058144436960694  0.7203372283596334 1.0000   
         C         C         1.0       0.6647813762708267  0.19134563148218572           0.7132393967147366 1.0000   
         C         C         1.0       0.6146346448119826  0.25004003293221094           0.704881301619041  1.0000   
         C         C         1.0       0.6240981667033252  0.2633829438993012  0.7260381749683352 1.0000   
         C         C         1.0       0.6271211181985537  0.28653639516457463           0.7240429654023423 1.0000   
         C         C         1.0       0.6214965725919122  0.29691781163609227           0.7001593779256894 1.0000   
         C         C         1.0       0.6130941974380693  0.2846213039304097  0.6783881376535396 1.0000   
         C         C         1.0       0.6109416409903279  0.2614970876640403  0.6806356737573691 1.0000   
         C         C         1.0       0.5688328171272928  0.228561247330056   0.6876163832858992 1.0000   
         C         C         1.0       0.5515785101388769  0.22256996881932387           0.6699977872952642 1.0000   
         C         C         1.0       0.5526215079354706  0.20317857988182028           0.6547521609238584 1.0000   
         C         C         1.0       0.5697788898926934  0.18747087606046262           0.6595575103922549 1.0000   
         C         C         1.0       0.5866137359717822  0.19302960684613657           0.6787362686553302 1.0000   
         C         C         1.0       0.5875555264627906  0.21495994497723855           0.6916502293479876 1.0000   
         H         H         1.0       0.5569315523320021  0.16115006048359418           0.8522720885084958 1.0000   
         H         H         1.0       0.6193618899677289  0.19700705570907118           0.8252635076525985 1.0000   
         H         H         1.0       0.639131232689417   0.16682453444481116           0.842459128416756  1.0000   
         H         H         1.0       0.5784309109532211  0.13346142645458967           0.8730002325311839 1.0000   
         H         H         1.0       0.5997174446930241  0.23818422665547914           0.8219240177940142 1.0000   
         H         H         1.0       0.5967833237061188  0.273462420755483   0.8447574973786606 1.0000   
         H         H         1.0       0.5482887917481714  0.24277659724527303           0.9000375287365148 1.0000   
         H         H         1.0       0.5480884657926504  0.2079171312704362  0.868171951464373  1.0000   
         H         H         1.0       0.5914177108501514  0.17183715290535093           0.7801542387855515 1.0000   
         H         H         1.0       0.6110855197305348  0.18270436366205653           0.7383653186192218 1.0000   
         H         H         1.0       0.5749390853456561  0.24623398122828133           0.7458221156819179 1.0000   
         H         H         1.0       0.5666039792280071  0.23995750132770477           0.7895876558507454 1.0000   
         H         H         1.0       0.6600095825331415  0.19037847190894336           0.644748912302918  1.0000   
         H         H         1.0       0.6275187510530981  0.21536721086214877           0.6582357476685754 1.0000   
         H         H         1.0       0.6437646590054127  0.21177297671908066           0.7407742028164875 1.0000   
         H         H         1.0       0.6761279478542701  0.18407967157543184           0.7290918375179722 1.0000   
         H         H         1.0       0.6259204169851528  0.2552538062988188  0.7441590388879296 1.0000   
         H         H         1.0       0.6333327125449545  0.29511933502419524           0.7418537455962715 1.0000   
         H         H         1.0       0.6067602936888455  0.291173729023426   0.6596580668401748 1.0000   
         H         H         1.0       0.6068692951081307  0.2517765369187365  0.6631432867811203 1.0000   
         H         H         1.0       0.5680955876445777  0.24614683809846924           0.6977163542750806 1.0000   
         H         H         1.0       0.5380385487927485  0.2357052807432065  0.67037890119161   1.0000   
         H         H         1.0       0.571755827250423   0.1723410683186804  0.647688463008778  1.0000   
         H         H         1.0       0.6010615535511104  0.18170841792301917           0.6819467139553284 1.0000   
         C         C         1.0       0.5406260353246091  0.14105731641811434           0.9969003742633431 1.0000   
         C         C         1.0       0.5409102931031645  0.16518341979105625           0.9972709712195184 1.0000   
         C         C         1.0       0.5577015939013165  0.17630989162703337           0.012902313048719138         1.0000   
         C         C         1.0       0.5759626272411156  0.16475693066835803           0.025253903447845172         1.0000   
         C         C         1.0       0.5732540778137101  0.14097904573179118           0.025903054494273547         1.0000   
         C         C         1.0       0.5565182839642333  0.128691637206573   0.0116841807532293 1.0000   
         H         H         1.0       0.5268519999144606  0.17333509628193572           0.9867392571810313 1.0000   
         H         H         1.0       0.5589383796035344  0.19456893715441842           0.014586951764909317         1.0000   
         H         H         1.0       0.5848340551972859  0.12966124731655684           0.0369842836802301 1.0000   
         H         H         1.0       0.5552623321491434  0.11003228045350559           0.011865150583734385         1.0000   
         C         C         1.0       0.6271833296437375  0.15720217444969556           0.07053412867790465          1.0000   
         C         C         1.0       0.6175541639409395  0.1621284964320471  0.0457877103055917 1.0000   
         C         C         1.0       0.6285830920878132  0.15208019108528492           0.022801835342475263         1.0000   
         C         C         1.0       0.647139032147369   0.1379415007618593  0.02558424298884243          1.0000   
         C         C         1.0       0.6563842774952593  0.13493717321521123           0.0506128983804921 1.0000   
         C         C         1.0       0.6460673791757103  0.1439547101505721  0.07316091029045801          1.0000   
         C         C         1.0       0.5948826199070494  0.17812573062063947           0.04359671360927897          1.0000   
         C         C         1.0       0.5802674573532561  0.18144079431173113           0.07116162483218291          1.0000   
         C         C         1.0       0.5707141697206555  0.20282323035521416           0.07586917546069194          1.0000   
         C         C         1.0       0.5690717071968975  0.2135640445329619  0.5740873317384008 1.0000   
         C         C         1.0       0.5584372439176626  0.19644955026966723           0.5891423660364892 1.0000   
         C         C         1.0       0.5678901433406143  0.17465514768885051           0.5890690218760117 1.0000   
         C         C         1.0       0.5867179243238563  0.17024052707347725           0.5727037296585766 1.0000   
         C         C         1.0       0.6048091950178789  0.20189633418116124           0.0012953454562587563        1.0000   
         C         C         1.0       0.6175273551700364  0.21933998026947726           0.9891172721273819 1.0000   
         C         C         1.0       0.6288687581327134  0.2360728603908443  0.003885114627248498         1.0000   
         C         C         1.0       0.6305962815932934  0.23159805183194798           0.031615321896633075         1.0000   
         C         C         1.0       0.6186339770920641  0.21403477131744458           0.04410299457107225          1.0000   
         C         C         1.0       0.6050353794910058  0.19998542319166304           0.028885579925448823         1.0000   
         C         C         1.0       0.6417286726244841  0.25598974533541113           0.98711698918208   1.0000   
         C         C         1.0       0.7028939240069676  0.21304888697763444           0.9740473232741289 1.0000   
         C         C         1.0       0.6867613224701752  0.2142907422449075  0.953075996940466  1.0000   
         C         C         1.0       0.666896317453866   0.2271912033888408  0.9578518552795228 1.0000   
         C         C         1.0       0.6641009656026133  0.24130363510057162           0.981137843791676  1.0000   
         C         C         1.0       0.6816172865643804  0.24062432642537923           8.110665421012797e-05        1.0000   
         C         C         1.0       0.7008129211171396  0.22752595747489643           0.9963278760280521 1.0000   
         C         C         1.0       0.6469751914090802  0.2793174842231921  0.001769197645878462         1.0000   
         C         C         1.0       0.6352723078278212  0.28680483342593466           0.024527969440915953         1.0000   
         C         C         1.0       0.6362291662004895  0.3092193794930417  0.03459324959623622          1.0000   
         C         C         1.0       0.6507791650400673  0.3246131228363148  0.021641114028412733         1.0000   
         C         C         1.0       0.6650060744327355  0.3169113934277269  0.001960854487139896         1.0000   
         C         C         1.0       0.6626586170311357  0.29499937626402467           0.9911836333273581 1.0000   
         C         C         1.0       0.6379025489770562  0.27241427080375713           0.9388688653254321 1.0000   
         C         C         1.0       0.6255000538036836  0.281635339713187   0.9179417338310853 1.0000   
         C         C         1.0       0.6022856372569284  0.2834173975363335  0.9194779411354399 1.0000   
         C         C         1.0       0.5914819538731582  0.27693174838940976           0.942168637560657  1.0000   
         C         C         1.0       0.6028488501769961  0.2668721028165663  0.9627960478754432 1.0000   
         C         C         1.0       0.6270182929653685  0.26461713389606667           0.9614110395939208 1.0000   
         H         H         1.0       0.6331341117288292  0.17456455924476516           0.5848668987692205 1.0000   
         H         H         1.0       0.622079717710739   0.15481657786833983           0.0022442326599325657        1.0000   
         H         H         1.0       0.6552927371369214  0.13141971354892099           0.0065246631733419935        1.0000   
         H         H         1.0       0.6700011892910769  0.1561116042414138  0.5953755772650585 1.0000   
         H         H         1.0       0.5730891444794968  0.21682875579470545           0.05957503300228173          1.0000   
         H         H         1.0       0.5609460911817261  0.22962004749448325           0.5724891562523129 1.0000   
         H         H         1.0       0.5586908939377392  0.15936066089882225           0.5994494250087705 1.0000   
         H         H         1.0       0.5917475122087651  0.1521494679449721  0.5681983438248833 1.0000   
         H         H         1.0       0.5977748674569702  0.18851217440946288           0.9877527506664499 1.0000   
         H         H         1.0       0.6167605633469667  0.22035746243818075           0.9675452761643173 1.0000   
         H         H         1.0       0.6421885354011453  0.24243542581812508           0.04448995769458519          1.0000   
         H         H         1.0       0.6206835632671924  0.21129243656118318           0.06486971117711215          1.0000   
         H         H         1.0       0.6896912261412157  0.20426800899642358           0.9341138713397672 1.0000   
         H         H         1.0       0.6521622996794197  0.22682436325872285           0.9443756980801224 1.0000   
         H         H         1.0       0.6802789966200228  0.2506676828494208  0.017868979263013784         1.0000   
         H         H         1.0       0.7126729614274234  0.22819033898107313           0.012570601897038847         1.0000   
         H         H         1.0       0.6204140692873279  0.2775081230269866  0.030750595821628313         1.0000   
         H         H         1.0       0.6250208406964761  0.31640395735395827           0.049886487680655955         1.0000   
         H         H         1.0       0.6771310927760534  0.3279307839106371  0.9889900435963859 1.0000   
         H         H         1.0       0.6735168350215417  0.28865711425217266           0.9735595693046132 1.0000   
         H         H         1.0       0.6564117012247037  0.2719434927327911  0.9389714673776287 1.0000   
         H         H         1.0       0.6324285583871548  0.2868948390095627  0.8993212945112096 1.0000   
         H         H         1.0       0.5728517413354988  0.27856879806229257           0.9441946471717271 1.0000   
         H         H         1.0       0.5936706715551046  0.26134629759142664           0.9814764884637951 1.0000   
         C         C         1.0       0.7409465113038586  0.014518990741791082         0.7048087038667589 1.0000   
         C         C         1.0       0.7358283065200245  0.005791465797690965         0.6797639764473689 1.0000   
         C         C         1.0       0.7289612470319874  0.01970743453298529           0.6598210885602293 1.0000   
         C         C         1.0       0.7273818572939886  0.043939563190081826         0.6634690238289621 1.0000   
         C         C         1.0       0.7339779424819854  0.052469400585768   0.6877597553578756 1.0000   
         C         C         1.0       0.7407550745915032  0.038527747508966516         0.7097737677622624 1.0000   
         H         H         1.0       0.7351857461670408  0.9870127031127549  0.674839080036686  1.0000   
         H         H         1.0       0.7261043287437385  0.01162235534054834           0.6401814190105495 1.0000   
         H         H         1.0       0.7349071383738944  0.07168682017346305           0.6932371175375981 1.0000   
         H         H         1.0       0.7469756015254124  0.04592313467465186           0.7287776738224134 1.0000   
         C         C         1.0       0.6936642886622348  0.08407942385065731           0.6707433777694193 1.0000   
         C         C         1.0       0.7091921410919363  0.08451952753747573           0.6495832673977524 1.0000   
         C         C         1.0       0.7108409677099018  0.10465487738864342           0.6342921589074544 1.0000   
         C         C         1.0       0.6981974983100729  0.12360223292441774           0.6406425436223343 1.0000   
         C         C         1.0       0.684183308015114   0.12210533701020469           0.6631217906729735 1.0000   
         C         C         1.0       0.682935943054751   0.10273169287574052           0.6799975392990371 1.0000   
         C         C         1.0       0.7205629243489218  0.06104561102529748           0.6398205341113807 1.0000   
         C         C         1.0       0.7026493323269859  0.052051308579592136         0.6185006645418136 1.0000   
         C         C         1.0       0.7016494774559854  0.060504290787572135         0.5920458229167738 1.0000   
         C         C         1.0       0.687732201517951   0.04977719017792138           0.5721692563928785 1.0000   
         C         C         1.0       0.675188555710292   0.030402861964505812         0.5782651842742783 1.0000   
         C         C         1.0       0.6746931922806403  0.022597331989576253         0.6047781424148699 1.0000   
         C         C         1.0       0.687145006184675   0.03397150274946353           0.6248688802105483 1.0000   
         C         C         1.0       0.7620125207013284  0.0802996006262085  0.637744002625157  1.0000   
         C         C         1.0       0.7807271774082185  0.08699374418735621           0.6231278466099818 1.0000   
         C         C         1.0       0.7844305999811806  0.07820497060729255           0.5979506777367869 1.0000   
         C         C         1.0       0.7709486507441676  0.05946918408643358           0.5900556989968765 1.0000   
         C         C         1.0       0.752925697629598   0.05229903605029929           0.6046209413159445 1.0000   
         C         C         1.0       0.7458982950898316  0.06463872842953035           0.628003911451456  1.0000   
         C         C         1.0       0.77201210821472    0.07455669063171123           0.07873066024842745          1.0000   
         C         C         1.0       0.7206480035333317  0.12132519621800962           0.04850063662038484          1.0000   
         C         C         1.0       0.7323944129682622  0.12692419358433407           0.07182174714617329          1.0000   
         C         C         1.0       0.7496980920217919  0.11297371394550153           0.08057242507588658          1.0000   
         C         C         1.0       0.7558372705095081  0.09277633728300191           0.0664879262436513 1.0000   
         C         C         1.0       0.7447311713781416  0.08887680505259091           0.04157971831180607          1.0000   
         C         C         1.0       0.7257412604425375  0.10224734906099708           0.03320752869317811          1.0000   
         C         C         1.0       0.7867522751720636  0.06252556838572478           0.05638065177508689          1.0000   
         C         C         1.0       0.7880431092010431  0.03911649403748033           0.055127569124016285         1.0000   
         C         C         1.0       0.7973926588399725  0.028469926941923296         0.03306801825413963          1.0000   
         C         C         1.0       0.80816047014606    0.04202133975861066           0.01352541965940457          1.0000   
         C         C         1.0       0.8085180248558023  0.06570953629745362           0.014788581656657751         1.0000   
         C         C         1.0       0.7983388439276481  0.07552268586835566           0.037304815975912176         1.0000   
         C         C         1.0       0.8045547184483447  0.1069878096053936  0.09173457138566365          1.0000   
         C         C         1.0       0.8200498512661282  0.11625241031761885           0.10869737694854265          1.0000   
         C         C         1.0       0.8260189674567167  0.10397525596095117           0.13090961372143273          1.0000   
         C         C         1.0       0.8546893622551074  0.0995838578754273  0.6212527248131631 1.0000   
         C         C         1.0       0.8366321470117817  0.09010366411240961           0.6082023139390627 1.0000   
         C         C         1.0       0.7927505705525558  0.08585321124053494           0.09802324096993242          1.0000   
         H         H         1.0       0.690128396453471   0.06898092552983018           0.6828660028188872 1.0000   
         H         H         1.0       0.7216246458604627  0.1060342534612811  0.6167271697772924 1.0000   
         H         H         1.0       0.6999261851553586  0.1378890254263567  0.6277192380055939 1.0000   
         H         H         1.0       0.6735969114926041  0.10013711410102479           0.6982293009236246 1.0000   
         H         H         1.0       0.7140956818859108  0.07379900902737045           0.5844584724381244 1.0000   
         H         H         1.0       0.6872178430948536  0.05657830480294734           0.5526761748940566 1.0000   
         H         H         1.0       0.6638476609795071  0.0080180848539535  0.6101292511138634 1.0000   
         H         H         1.0       0.6850021928420471  0.028149042901474356         0.6470303448274737 1.0000   
         H         H         1.0       0.7607136564777598  0.08931015472348976           0.6569529273506725 1.0000   
         H         H         1.0       0.792543922755421   0.10001620551575137           0.6321391787341459 1.0000   
         H         H         1.0       0.7724276662969222  0.05330910931657075           0.5694171256840759 1.0000   
         H         H         1.0       0.7423382031430191  0.0372562090982044  0.596687324114807  1.0000   
         H         H         1.0       0.7276800275829628  0.14204303171823107           0.0837651403739259 1.0000   
         H         H         1.0       0.7581524608578979  0.11745284165319378           0.0997875114042499 1.0000   
         H         H         1.0       0.7466587695175299  0.07301504763722168           0.030045700886266236         1.0000   
         H         H         1.0       0.7157176020658779  0.09592188566958011           0.016136278352819833         1.0000   
         H         H         1.0       0.7820245687049338  0.02894680994956933           0.07254984654615182          1.0000   
         H         H         1.0       0.7964073238250189  0.009698850372078516         0.0315950909356435 1.0000   
         H         H         1.0       0.8158439898513086  0.07694602688915778           0.9998757535348762 1.0000   
         H         H         1.0       0.7987233122592728  0.0937436337872413  0.03949696501705491          1.0000   
         H         H         1.0       0.7973619954269333  0.11590591535395207           0.0749861862458101 1.0000   
         H         H         1.0       0.825907352617189   0.13305164599288974           0.10568598370831528          1.0000   
         H         H         1.0       0.8641061078533926  0.08929204940952883           0.6341974719399562 1.0000   
         H         H         1.0       0.8332853636825865  0.07206746240579967           0.6138393839798021 1.0000   
         C         C         1.0       0.7808216251582234  0.03694472092751183           0.9567204586578718 1.0000   
         C         C         1.0       0.7586427386430401  0.028183576871945615         0.956537933552224  1.0000   
         C         C         1.0       0.7406506141228122  0.04263508765445776           0.9514532001735849 1.0000   
         C         C         1.0       0.7448889622901557  0.06460425113208232           0.941771938763152  1.0000   
         C         C         1.0       0.7674055130543399  0.07338391625203097           0.9418725282520176 1.0000   
         C         C         1.0       0.7848479887074024  0.05948687526415345           0.9498365721561679 1.0000   
         H         H         1.0       0.7563456070894797  0.010180557914280186         0.9593722779573547 1.0000   
         H         H         1.0       0.7240340391532709  0.03478482874536759           0.9513993921088887 1.0000   
         H         H         1.0       0.7714713080714984  0.09065616692294277           0.9313666348212494 1.0000   
         H         H         1.0       0.8016375943871084  0.06689423028601335           0.9527063503860184 1.0000   
         C         C         1.0       0.7390371499313346  0.11320395703836778           0.9652918685652575 1.0000   
         C         C         1.0       0.7252844255740069  0.1058595422121196  0.9428074505800043 1.0000   
         C         C         1.0       0.7116939749463728  0.12223512095682047           0.9310564799556639 1.0000   
         C         C         1.0       0.7083555902005008  0.14361351717926868           0.9432901726553289 1.0000   
         C         C         1.0       0.721286268640179   0.1505198326040803  0.966382631323713  1.0000   
         C         C         1.0       0.7376010314913475  0.1356577626691378  0.9761335844891782 1.0000   
         C         C         1.0       0.7237216364378107  0.08042437214381626           0.9316433752153719 1.0000   
         C         C         1.0       0.6995118538984391  0.07346204696664431           0.9440118631708654 1.0000   
         C         C         1.0       0.6794559292330616  0.07544402421423138           0.9286698547341158 1.0000   
         C         C         1.0       0.6581150618090107  0.06912091549256669           0.9392437534907258 1.0000   
         C         C         1.0       0.6568928258465943  0.0610987941633776  0.9659333942447493 1.0000   
         C         C         1.0       0.6761434067643718  0.06123945207492243           0.9812033198293829 1.0000   
         C         C         1.0       0.6971640032999795  0.06770046803745564           0.9703682816497152 1.0000   
         C         C         1.0       0.7329939808522908  0.09429009029760593           0.8824155152133263 1.0000   
         C         C         1.0       0.7304446643956115  0.09230833611433754           0.8543694586437786 1.0000   
         C         C         1.0       0.7201721116541447  0.07201370091829072           0.8426856106113785 1.0000   
         C         C         1.0       0.7182222821086152  0.05404612623768117           0.8600431182748478 1.0000   
         C         C         1.0       0.7198497792006143  0.055380385908802225         0.8876860159430888 1.0000   
         C         C         1.0       0.7263521640882422  0.07678283848059078           0.8993256662679847 1.0000   
         C         C         1.0       0.7102878204760047  0.07143874916760362           0.8118220171601366 1.0000   
         C         C         1.0       0.6432314653798835  0.09629057964393244           0.835760241872531  1.0000   
         C         C         1.0       0.6588810957891567  0.1122326909967137  0.8266704720062723 1.0000   
         C         C         1.0       0.6803305659881846  0.10436836272424412           0.8167800664401093 1.0000   
         C         C         1.0       0.6859805550293842  0.08074421061005378           0.818025265878896  1.0000   
         C         C         1.0       0.6692571742943854  0.0663147371990398  0.8255144616279187 1.0000   
         C         C         1.0       0.6472556321020161  0.07326459314803065           0.8331403861439017 1.0000   
         C         C         1.0       0.7117386438731186  0.04704219331591955           0.796785489937255  1.0000   
         C         C         1.0       0.7306446275544076  0.03284142094915654           0.8026976669849193 1.0000   
         C         C         1.0       0.7344094719054581  0.01343287204606103           0.7875789612756404 1.0000   
         C         C         1.0       0.7207914746607581  0.008316205945215536         0.7652473963531434 1.0000   
         C         C         1.0       0.7017580494708439  0.021063460366416605         0.7600761478480247 1.0000   
         C         C         1.0       0.6980653950612143  0.04026197348938821           0.7762999763939801 1.0000   
         C         C         1.0       0.7134293717818372  0.0962160123652727  0.7696328648141563 1.0000   
         C         C         1.0       0.7250798374817906  0.10496679668656766           0.7484700648809858 1.0000   
         C         C         1.0       0.7491943851261869  0.10670582236164045           0.7487768736725077 1.0000   
         C         C         1.0       0.7596831846090105  0.09789087941791653           0.7713375363059528 1.0000   
         C         C         1.0       0.747216597749607   0.0901476675863291  0.7922464159542942 1.0000   
         C         C         1.0       0.7243697945097468  0.08692732741710951           0.791490287478741  1.0000   
         H         H         1.0       0.7485702175677554  0.10140353515158244           0.9785570745836254 1.0000   
         H         H         1.0       0.701117983098494   0.11887726586305837           0.9134211366781396 1.0000   
         H         H         1.0       0.6934603607576465  0.15388580624919274           0.9374788838979217 1.0000   
         H         H         1.0       0.7446070438581751  0.1407651120528179  0.994820558792394  1.0000   
         H         H         1.0       0.6806517817711196  0.08087083706724014           0.9089012807404755 1.0000   
         H         H         1.0       0.6441088167116477  0.0705070386329369  0.9251058877399841 1.0000   
         H         H         1.0       0.6765461814124648  0.055572607991799305         0.002701188372866925         1.0000   
         H         H         1.0       0.7116532858909606  0.06910504612419667           0.9841252726576166 1.0000   
         H         H         1.0       0.7389209647479155  0.10976286487644636           0.8914538123108816 1.0000   
         H         H         1.0       0.7366309716773523  0.10704125843455224           0.8431046274429151 1.0000   
         H         H         1.0       0.7078772693094     0.040113219323519016         0.8515714519699213 1.0000   
         H         H         1.0       0.7137057789966277  0.04156937939585529           0.8995327884611216 1.0000   
         H         H         1.0       0.658347979611156   0.13089860977217463           0.830426019117807  1.0000   
         H         H         1.0       0.6927532587486921  0.11581845413062097           0.8098942256940447 1.0000   
         H         H         1.0       0.6717240695963337  0.04865475520655427           0.8240162492518601 1.0000   
         H         H         1.0       0.6347565973033525  0.06056146780221404           0.8403330245152388 1.0000   
         H         H         1.0       0.7432796570873444  0.03712798634569426           0.8172037810978292 1.0000   
         H         H         1.0       0.748722527539234   0.0031102446763022758        0.7928494849688095 1.0000   
         H         H         1.0       0.6925549209312406  0.020497577085129004         0.7417531756198834 1.0000   
         H         H         1.0       0.6843704022897994  0.05093784743827359           0.7712063377874117 1.0000   
         H         H         1.0       0.6964804282304508  0.0940685071649684  0.7644184145414532 1.0000   
         H         H         1.0       0.7157717893708424  0.11025624320939083           0.7308060811695415 1.0000   
         H         H         1.0       0.7786523849201888  0.09791996771816555           0.7739474550977519 1.0000   
         H         H         1.0       0.7565565174405608  0.08304098969221387           0.8097209632987271 1.0000   
         C         C         1.0       0.1970768928713912  0.18036943269359473           0.6891658961870603 1.0000   
         C         C         1.0       0.2088285109340406  0.1711621358115636  0.6662341205570506 1.0000   
         C         C         1.0       0.21057481209375847           0.14717231780400494          0.6628112009760312 1.0000   
         C         C         1.0       0.20156839073625946           0.1320664007232716 0.682287246610659  1.0000   
         C         C         1.0       0.19053159935201344           0.14196410232838333          0.7048646691467249 1.0000   
         C         C         1.0       0.18807333937245987           0.1653118006626579 0.7079825730685962 1.0000   
         H         H         1.0       0.21689119644134588           0.18123418168720007          0.6498181214033953 1.0000   
         H         H         1.0       0.21758143033234986           0.14128508238503093          0.643184006606298  1.0000   
         H         H         1.0       0.18471254383600116           0.1293183057194848 0.7200922492552451 1.0000   
         H         H         1.0       0.18114068193776833           0.17128100189321074          0.7272687915988238 1.0000   
         C         C         1.0       0.19275236525777448           0.06791167539976284          0.7003068305192491 1.0000   
         C         C         1.0       0.18691175171036462           0.09003581608038787          0.6922021883174581 1.0000   
         C         C         1.0       0.1637116002728742  0.09538223049297832           0.6918221225596188 1.0000   
         C         C         1.0       0.14782754057274117           0.07784487369920878          0.6967619916812599 1.0000   
         C         C         1.0       0.15439174152628288           0.05577977810481549          0.7003912743827568 1.0000   
         C         C         1.0       0.17707689510215163           0.05022756682894047          0.7043040465459411 1.0000   
         C         C         1.0       0.20710110790947484           0.10542055465627899          0.6802923685405776 1.0000   
         C         C         1.0       0.22966204030795398           0.10796467196023242          0.6972667547262363 1.0000   
         C         C         1.0       0.24982725304484413           0.11318340735432524          0.6834987380300362 1.0000   
         C         C         1.0       0.26949364370353657           0.11735701255041536          0.6975140570141399 1.0000   
         C         C         1.0       0.26856032012572245           0.12013349189167317          0.725728140135209  1.0000   
         C         C         1.0       0.24899043809117452           0.11529342086970829          0.7385823314878684 1.0000   
         C         C         1.0       0.22936788616008716           0.10780609480299132          0.7256048321133449 1.0000   
         C         C         1.0       0.1942553318243723  0.1003975023213442  0.6318387937882712 1.0000   
         C         C         1.0       0.1930701494805456  0.08880214548537695           0.6077154929122117 1.0000   
         C         C         1.0       0.21065093069508373           0.07329545049664521          0.600238198361589  1.0000   
         C         C         1.0       0.2256235142607763  0.0660989547090185  0.6206271873322701 1.0000   
         C         C         1.0       0.22457361651430693           0.07743088351243985          0.6455675777850427 1.0000   
         C         C         1.0       0.20997998188831388           0.09554272540848428          0.6508823142589228 1.0000   
         C         C         1.0       0.20742027723120995           0.060056214147180986         0.5721401116015263 1.0000   
         C         C         1.0       0.17147953344945485           0.9994368261914064 0.6052830104138404 1.0000   
         C         C         1.0       0.16001422686817626           0.01995321103735548          0.6006392673988091 1.0000   
         C         C         1.0       0.17034358594290577           0.037141604873046186         0.5862196049077074 1.0000   
         C         C         1.0       0.19378445716651396           0.03687698892128388          0.5819457785630598 1.0000   
         C         C         1.0       0.20601794705224663           0.017641567005625358         0.5896566233534462 1.0000   
         C         C         1.0       0.19416178680435925           0.9989091636479546 0.5991762002511227 1.0000   
         C         C         1.0       0.2306387474948496  0.05525897182490125           0.5577394903661803 1.0000   
         C         C         1.0       0.2503554775823191  0.06929185872576005           0.5615894205988587 1.0000   
         C         C         1.0       0.2690376833240723  0.06686938063778802           0.544493732557823  1.0000   
         C         C         1.0       0.2700051312746199  0.048080065186711485         0.5274689088797319 1.0000   
         C         C         1.0       0.2520987982754109  0.033020272646897775         0.5240438815165465 1.0000   
         C         C         1.0       0.23204476515855954           0.03683289778803189          0.5387859953738477 1.0000   
         C         C         1.0       0.1792946560377146  0.0982457948181279  0.9930958550809643 1.0000   
         C         C         1.0       0.1756750692941036  0.11396130537339477           0.9732201157502072 1.0000   
         C         C         1.0       0.17862951135247876           0.13729189553326898          0.9799503708588841 1.0000   
         C         C         1.0       0.1842747567869343  0.14406404968513553           0.006516296577588232         1.0000   
         C         C         1.0       0.1980310529679853  0.09658341679095112           0.5450588286887653 1.0000   
         C         C         1.0       0.19485880714070697           0.07295903206337351          0.5478694940440737 1.0000   
         H         H         1.0       0.2114632168185327  0.06357881770488549           0.7004147059144246 1.0000   
         H         H         1.0       0.1578190118578347  0.11232584619241323           0.6869546359002322 1.0000   
         H         H         1.0       0.1303938169192324  0.08355242239569471           0.6983272224491058 1.0000   
         H         H         1.0       0.1820284326391253  0.03276258632310447           0.710895744116536  1.0000   
         H         H         1.0       0.2510563619475135  0.11483020746955663           0.6621176669203481 1.0000   
         H         H         1.0       0.2849067328029899  0.12049988674451945           0.684162378767545  1.0000   
         H         H         1.0       0.24782329240248213           0.11498619094712982          0.7615935601071738 1.0000   
         H         H         1.0       0.21302728666609178           0.10401030549109959          0.7358226133166093 1.0000   
         H         H         1.0       0.1805197790221256  0.11205382540539133           0.6367838437156053 1.0000   
         H         H         1.0       0.17939007792265874           0.09396799539177225          0.5949433920305468 1.0000   
         H         H         1.0       0.2385764157439964  0.05320046877965878           0.6172570995736891 1.0000   
         H         H         1.0       0.2349173922956604  0.07140801827850618           0.6623187374183743 1.0000   
         H         H         1.0       0.11527553906394583           0.0536525859425554 0.02377573805262423          1.0000   
         H         H         1.0       0.16111254847658976           0.05132680168092074          0.5794750857016865 1.0000   
         H         H         1.0       0.2241880556447704  0.017706281437630755         0.5883390395748275 1.0000   
         H         H         1.0       0.2036681280878268  0.9832941867098439  0.602548715544929  1.0000   
         H         H         1.0       0.25247805862597844           0.08253646986148722          0.5778719751268503 1.0000   
         H         H         1.0       0.28353249355256055           0.07930598561524427          0.543490585906404  1.0000   
         H         H         1.0       0.2545295249184316  0.016730727147566293         0.5129176869812097 1.0000   
         H         H         1.0       0.21767717526624925           0.024726739212272975         0.5357538398720957 1.0000   
         H         H         1.0       0.17720724594366957           0.07970032304303842          0.9859386477634613 1.0000   
         H         H         1.0       0.1690061086339299  0.10965478138872742           0.9530687069045244 1.0000   
         H         H         1.0       0.18948179186931433           0.12504649335561502          0.5243072333744516 1.0000   
         H         H         1.0       0.20643911831166775           0.10849608490591772          0.5602287145913206 1.0000   
         C         C         1.0       0.1354694506976716  0.09351253429714146           0.7875034676418715 1.0000   
         C         C         1.0       0.15084543967702035           0.10970154520484772          0.7982264838963059 1.0000   
         C         C         1.0       0.16361574956765154           0.10505327631928975          0.819583329229703  1.0000   
         C         C         1.0       0.1608851404785694  0.08426016945881312           0.8337041141326067 1.0000   
         C         C         1.0       0.14690800464303955           0.06673154479908569          0.820765288960594  1.0000   
         C         C         1.0       0.13361786388927546           0.0723045638542013 0.7986013730043466 1.0000   
         H         H         1.0       0.15373164980071516           0.12530908929522444          0.7897106101148611 1.0000   
         H         H         1.0       0.1747857180959051  0.11806114984524575           0.8277446420733305 1.0000   
         H         H         1.0       0.14481840726552878           0.05014540283415151          0.8288460674891476 1.0000   
         H         H         1.0       0.1216580769143494  0.060799166819653964         0.7887007692135068 1.0000   
         C         C         1.0       0.13794851026811827           0.06156980726099959          0.8839998044198967 1.0000   
         C         C         1.0       0.16208165875185268           0.06388150568812523          0.8836502462330398 1.0000   
         C         C         1.0       0.173553740983345   0.05278497200527155           0.9051161155106849 1.0000   
         C         C         1.0       0.1620910840890352  0.03611472009784933           0.919154636090206  1.0000   
         C         C         1.0       0.13943756463089665           0.031737361380334006         0.9158795935007316 1.0000   
         C         C         1.0       0.12702825607544205           0.04477093794278586          0.8986840323220651 1.0000   
         C         C         1.0       0.17575744926549033           0.07818404785323006          0.8605816907835568 1.0000   
         C         C         1.0       0.1798982209306906  0.1006036622233512  0.8790569329959312 1.0000   
         C         C         1.0       0.20016178185371605           0.10427740328146706          0.8921690337622298 1.0000   
         C         C         1.0       0.20305934331174613           0.12408987107354164          0.9076562757751869 1.0000   
         C         C         1.0       0.18607742226391827           0.1394219013946282 0.9128015963293787 1.0000   
         C         C         1.0       0.16523354568188506           0.13666644165362335          0.8997489795029942 1.0000   
         C         C         1.0       0.16178617551162533           0.11612270019650671          0.884623035733662  1.0000   
         C         C         1.0       0.20668148044441007           0.043830746313019864         0.8541650715375712 1.0000   
         C         C         1.0       0.22710406230254412           0.03660331186153898          0.84336113398654   1.0000   
         C         C         1.0       0.2395281580728557  0.050472126137836026         0.8262207782677983 1.0000   
         C         C         1.0       0.23337105952586462           0.07350466389183265          0.8246397789639932 1.0000   
         C         C         1.0       0.21397726869155576           0.08163889174057905          0.8358863054590886 1.0000   
         C         C         1.0       0.19984069409782126           0.06702801129078217          0.8500648534062525 1.0000   
         C         C         1.0       0.25549811474972195           0.03859512017104927          0.8010957763592138 1.0000   
         C         C         1.0       0.19271624217215813           0.008074446692024395         0.7707520620852114 1.0000   
         C         C         1.0       0.19930569519284816           0.0302975515511843 0.7630630717531476 1.0000   
         C         C         1.0       0.2201114358063861  0.03883714348438061           0.7702146349159371 1.0000   
         C         C         1.0       0.23588177716245837           0.026386234328001912         0.7857620207358417 1.0000   
         C         C         1.0       0.22912752129415373           0.003922566522713167         0.7910089786532292 1.0000   
         C         C         1.0       0.20900319845585177           0.9941181200736038 0.7832648615098236 1.0000   
         C         C         1.0       0.27532748506870813           0.021133842398830538         0.8099154967234561 1.0000   
         C         C         1.0       0.28609476837652087           0.02271566017739657          0.8344749629653978 1.0000   
         C         C         1.0       0.30410813285291316           0.00820228657279265          0.8412233925068565 1.0000   
         C         C         1.0       0.309244763173734   0.9904378928547932  0.8235686633708137 1.0000   
         C         C         1.0       0.2997390499545643  0.9897632459001529  0.7978800962068912 1.0000   
         C         C         1.0       0.282955789045454   0.004756501761403742         0.7911790191490542 1.0000   
         C         C         1.0       0.2747220690093097  0.05432881446389514           0.7579514839585115 1.0000   
         C         C         1.0       0.2871362203257063  0.07054022792719726           0.7448525299504813 1.0000   
         C         C         1.0       0.29775378649170453           0.0884885880527268 0.7598034253863593 1.0000   
         C         C         1.0       0.2974805726269325  0.0890726800676779  0.787219469837629  1.0000   
         C         C         1.0       0.2836520619421149  0.07306432522508997           0.8005431979755794 1.0000   
         C         C         1.0       0.2710666069774597  0.05639147549589611           0.7861427981062181 1.0000   
         H         H         1.0       0.128470887997085   0.06985951864620511           0.8683956293995908 1.0000   
         H         H         1.0       0.1921155885097244  0.05409775226124691           0.9079202594833816 1.0000   
         H         H         1.0       0.17104823509590025           0.02674955022192549          0.933726057307917  1.0000   
         H         H         1.0       0.10806730839063745           0.04332806238823861          0.8964576084141999 1.0000   
         H         H         1.0       0.21443576148138088           0.09354118246787868          0.8920444168261713 1.0000   
         H         H         1.0       0.2188668205742944  0.12595605915102803           0.917051637637109  1.0000   
         H         H         1.0       0.15225873715176227           0.14939722713897746          0.8999178061852436 1.0000   
         H         H         1.0       0.14638265034257716           0.11397970528800883          0.8730303759350385 1.0000   
         H         H         1.0       0.19633061516789574           0.031172752906211354         0.8629097701611886 1.0000   
         H         H         1.0       0.2308112022034355  0.01963761203528902           0.842000427172314  1.0000   
         H         H         1.0       0.24230018931558445           0.08423121059174762          0.8103490667121698 1.0000   
         H         H         1.0       0.212276533825833   0.10072708259963145           0.8330015282443363 1.0000   
         H         H         1.0       0.18669274157887777           0.04202779212579277          0.7575100580101909 1.0000   
         H         H         1.0       0.22145511361079157           0.057257586314502396         0.7666923394369098 1.0000   
         H         H         1.0       0.2408819399533751  0.9922629130633923  0.8012292127021595 1.0000   
         H         H         1.0       0.20776704917314864           0.9755319766135984 0.7861295974447517 1.0000   
         H         H         1.0       0.2813249735495007  0.03582256583124033           0.8505091706029431 1.0000   
         H         H         1.0       0.3131189566728294  0.010868444818037837         0.860496670358032  1.0000   
         H         H         1.0       0.30286100135198357           0.977089508276652  0.7826077990070437 1.0000   
         H         H         1.0       0.2753913532869774  0.0013442347888847905        0.7723570150557074 1.0000   
         H         H         1.0       0.26729221473568676           0.03978617999241505          0.7478610397012285 1.0000   
         H         H         1.0       0.285131046880937   0.0699413637250284  0.7237319348824061 1.0000   
         H         H         1.0       0.30584645207671574           0.1029493774856507 0.7998509782696474 1.0000   
         H         H         1.0       0.28261485822169635           0.07320185431743598          0.8221966107035364 1.0000   
         C         C         1.0       0.026670988116005434          0.9023713994384118 0.8134831525918879 1.0000   
         C         C         1.0       0.0139150447733003  0.92196686419403    0.8107558218672701 1.0000   
         C         C         1.0       0.023147515257366136          0.9421458779750114 0.8013027899774909 1.0000   
         C         C         1.0       0.04638057866592482           0.9435721281375267 0.7958728161166616 1.0000   
         C         C         1.0       0.05894162849976379           0.9235779921445837 0.7983187095449571 1.0000   
         C         C         1.0       0.04912234829418942           0.9033389811268013 0.8055833812323185 1.0000   
         H         H         1.0       0.9949233781416709  0.9187155816562652  0.81205521579391   1.0000   
         H         H         1.0       0.01118383825374547           0.954347283758825  0.7941909134060099 1.0000   
         H         H         1.0       0.07766028130558805           0.9232983571152971 0.7933167622296444 1.0000   
         H         H         1.0       0.06158764854386246           0.8894738942651562 0.806475491031149  1.0000   
         C         C         1.0       0.09325772561768486           0.9693995589256253 0.8067122607225659 1.0000   
         C         C         1.0       0.08253551453929657           0.9720368477173016 0.7822200503405968 1.0000   
         C         C         1.0       0.09551684013974186           0.9805146760431452 0.7612991911400797 1.0000   
         C         C         1.0       0.11717690705874495           0.9869943420706158 0.7634398529774732 1.0000   
         C         C         1.0       0.12802568741049364           0.9857519703638512 0.7882663669556339 1.0000   
         C         C         1.0       0.11631197354466002           0.975936818990958  0.8092877301147031 1.0000   
         C         C         1.0       0.054809764740577235          0.9677299311218608 0.7823297115490775 1.0000   
         C         C         1.0       0.04736958414027015           0.9922581034279424 0.7943129545257738 1.0000   
         C         C         1.0       0.05275993241905241           0.012403936646096625         0.7800630851020668 1.0000   
         C         C         1.0       0.04797712977422752           0.03438467588385974          0.7899915632145096 1.0000   
         C         C         1.0       0.037321608024154296          0.03734743498041926          0.8153568394259152 1.0000   
         C         C         1.0       0.03243841238484113           0.017309816895290986         0.8304632019190534 1.0000   
         C         C         1.0       0.03741144807070218           0.9953659577986748 0.8194854407922703 1.0000   
         C         C         1.0       0.06044162251428935           0.9454492266831354 0.737396670930856  1.0000   
         C         C         1.0       0.060415326784301164          0.9471822248453239 0.7100427712517251 1.0000   
         C         C         1.0       0.04626827187122884           0.9619625090610714 0.6953845718871786 1.0000   
         C         C         1.0       0.030929242488142883          0.9753832189330043 0.7113817720712748 1.0000   
         C         C         1.0       0.03118697302314044           0.9746697074751746 0.7390282931425588 1.0000   
         C         C         1.0       0.04740361758673517           0.9621032160049542 0.752898337587248  1.0000   
         C         C         1.0       0.04945333496829198           0.9665122898560613 0.6640996802672046 1.0000   
         C         C         1.0       0.10625186046499767           0.014671842415660885         0.6723629160350788 1.0000   
         C         C         1.0       0.10972045746464365           0.9918700694628232 0.6733890840375156 1.0000   
         C         C         1.0       0.0925139410783559  0.9759557781468932  0.6705416387275132 1.0000   
         C         C         1.0       0.0703780810429305  0.9832289970314827  0.666512297291796  1.0000   
         C         C         1.0       0.06646512727406301           0.006533262887040925         0.6688143926653116 1.0000   
         C         C         1.0       0.08349636169669016           0.022050481241140618         0.6705484221257877 1.0000   
         C         C         1.0       0.029066004678561578          0.9749123576013011 0.6454671767703023 1.0000   
         C         C         1.0       0.0075320228515787235         0.9654439335527383 0.6498624505831985 1.0000   
         C         C         1.0       0.9916147795297895  0.9665577859593859  0.6294313461824427 1.0000   
         C         C         1.0       0.9962938219638429  0.9811014100585611  0.6073159450720897 1.0000   
         C         C         1.0       0.01683881486538752           0.9929136879896481 0.6058445221855813 1.0000   
         C         C         1.0       0.03364484120765665           0.9877367450602538 0.6235405579403723 1.0000   
         C         C         1.0       0.06935624755052666           0.9398554725360299 0.6264716043875296 1.0000   
         C         C         1.0       0.07514212998452521           0.9190318429956605 0.6163083187373743 1.0000   
         C         C         1.0       0.06718977978549971           0.8998949135581976 0.6288472873029057 1.0000   
         C         C         1.0       0.049578916003007754          0.9016255143004664 0.6459803180035266 1.0000   
         C         C         1.0       0.04279922469237584           0.9234292383220043 0.6559863052703488 1.0000   
         C         C         1.0       0.054182364342828006          0.9423882596723019 0.6483983743221501 1.0000   
         H         H         1.0       0.0849089571716056  0.9630643616431818  0.8248397133498158 1.0000   
         H         H         1.0       0.08711976968054867           0.9832181957860262 0.7424990411133616 1.0000   
         H         H         1.0       0.12406515037107559           0.9951683306527154 0.7448622970687281 1.0000   
         H         H         1.0       0.12327427816426685           0.9769355582731901 0.8286440584031763 1.0000   
         H         H         1.0       0.06171946311638673           0.013434721209073297         0.7603713364506046 1.0000   
         H         H         1.0       0.055027335418590395          0.04986868093076535          0.7808932721349526 1.0000   
         H         H         1.0       0.024648456199166002          0.018438567163264086         0.8502323744943172 1.0000   
         H         H         1.0       0.0332331855362753  0.9805362532645292  0.831012743434133  1.0000   
         H         H         1.0       0.0718957902111102  0.9344000441952659  0.7476466710126982 1.0000   
         H         H         1.0       0.0741454257347709  0.9394664126850083  0.6990542464606792 1.0000   
         H         H         1.0       0.017904136221738698          0.9869135093234331 0.7043011235044874 1.0000   
         H         H         1.0       0.019675353679641905          0.9871868780274915 0.7513287873746702 1.0000   
         H         H         1.0       0.1262231626314775  0.9861117727438339  0.6775770182522718 1.0000   
         H         H         1.0       0.09659149472570733           0.9573957059628709 0.6714115461285083 1.0000   
         H         H         1.0       0.049078120248670073          0.012201907452003447         0.6704152913046785 1.0000   
         H         H         1.0       0.07863547599904695           0.04046225294616468          0.6733486917826076 1.0000   
         H         H         1.0       0.0037097569601569624         0.9566557481775687 0.6685279957802021 1.0000   
         H         H         1.0       0.9745994751521826  0.9583305960414749  0.630981563692071  1.0000   
         H         H         1.0       0.020238695960276498          0.0045837227966798455        0.5899900565709617 1.0000   
         H         H         1.0       0.04977744132182973           0.9965332615543386 0.6187814133423756 1.0000   
         H         H         1.0       0.0776807355235693  0.9555309204100405  0.6202874929144185 1.0000   
         H         H         1.0       0.0880018057853568  0.9194319649166829  0.6016168513077415 1.0000   
         H         H         1.0       0.04237057811686906           0.8877389825316845 0.6582627040566499 1.0000   
         H         H         1.0       0.032130210727339126          0.9229542478895787 0.6736521188687362 1.0000   
         C         C         1.0       0.9688329590216997  0.9601739370390532  0.03955913065047101          1.0000   
         C         C         1.0       0.9758513325017757  0.98283198844665    0.04040662954216723          1.0000   
         C         C         1.0       0.9941471533211171  0.9892464388644473  0.02617747130626391          1.0000   
         C         C         1.0       0.0067066294087385625         0.9729517664075389 0.009806258843811921         1.0000   
         C         C         1.0       0.9990008633608938  0.949868592198315   0.008066357093816201         1.0000   
         C         C         1.0       0.9789375383775484  0.9443424120117423  0.021636811236793063         1.0000   
         H         H         1.0       0.9663720046851556  0.9960762166900594  0.05219705355743298          1.0000   
         H         H         1.0       0.9999807508726108  0.0068061810064654615        0.026061459343843518         1.0000   
         H         H         1.0       0.007615415736179409          0.9359565559654217 0.9969532783150515 1.0000   
         H         H         1.0       0.020044225174971286          0.9372020351744396 0.5702592373874843 1.0000   
         C         C         1.0       0.09461758502065733           0.9716197115002522 0.5687602319644847 1.0000   
         C         C         1.0       0.04437978331235625           0.9930938864852555 0.01735659650424659          1.0000   
         C         C         1.0       0.05115059371043063           0.01572427238557239          0.018225651664103726         1.0000   
         C         C         1.0       0.06875437105157339           0.02253982788978459          0.035517698979763423         1.0000   
         C         C         1.0       0.13438873449444802           0.9617789036994376 0.5745502648331738 1.0000   
         C         C         1.0       0.11288334296112375           0.9678735213122177 0.5851463232130022 1.0000   
         C         C         1.0       0.02969848842228417           0.980545393150291  0.9941550480108212 1.0000   
         C         C         1.0       0.02326684570422466           0.998771652988864  0.9703982768468556 1.0000   
         C         C         1.0       0.04055287269946194           0.009239714917560038         0.9558849496964094 1.0000   
         C         C         1.0       0.03633564544366452           0.02297364944128044          0.9345911878781828 1.0000   
         C         C         1.0       0.014042863449371001          0.029246221460144106         0.9291378233920428 1.0000   
         C         C         1.0       0.996497745182885   0.018389996974104372         0.9415989832279048 1.0000   
         C         C         1.0       0.001334976056626802          0.0018087804979733946        0.9611366193884372 1.0000   
         C         C         1.0       0.0646796909751552  0.9520960606453049  0.9862787437459283 1.0000   
         C         C         1.0       0.07519667211320512           0.9342316889981669 0.9728102301892275 1.0000   
         C         C         1.0       0.06717824828449177           0.925818750947475  0.948398421171386  1.0000   
         C         C         1.0       0.04750307979008839           0.9346196810347114 0.93961645754174   1.0000   
         C         C         1.0       0.034826725419364817          0.9498174837281645 0.9547000612652312 1.0000   
         C         C         1.0       0.043158038878135185          0.9595875313886774 0.9787942644876821 1.0000   
         C         C         1.0       0.08049742005016426           0.9075106416451898 0.930560385009546  1.0000   
         C         C         1.0       0.1260287430324257  0.964747850951317   0.9097880571278649 1.0000   
         C         C         1.0       0.13315876836111076           0.9499205431343092 0.9285929973760155 1.0000   
         C         C         1.0       0.12005626588697636           0.9302500304203319 0.9344115785377498 1.0000   
         C         C         1.0       0.1002632812269731  0.9257409985133974  0.9210670583036531 1.0000   
         C         C         1.0       0.09469557231516747           0.9396503928698711 0.8992808005423856 1.0000   
         C         C         1.0       0.10756066329776791           0.9589356382976306 0.8935142067268746 1.0000   
         C         C         1.0       0.06709796113040645           0.8936593409711742 0.9060109699920911 1.0000   
         C         C         1.0       0.04473323873804258           0.8861375245041618 0.9094327954124861 1.0000   
         C         C         1.0       0.03344398836305329           0.8753078361861731 0.8892822059710398 1.0000   
         C         C         1.0       0.042446175287587096          0.8716251494507639 0.8641996549858366 1.0000   
         C         C         1.0       0.06629984698691047           0.8751097611736518 0.8622357095912802 1.0000   
         C         C         1.0       0.07854213368485893           0.8863383384256323 0.8833365703019779 1.0000   
         C         C         1.0       0.10961460275163716           0.8757001151569214 0.9413379582256587 1.0000   
         C         C         1.0       0.11718540605928453           0.8573770516226203 0.9552367081311826 1.0000   
         C         C         1.0       0.10567451728025984           0.8503307993855036 0.9784357769451706 1.0000   
         C         C         1.0       0.085219827059951   0.8596979375947248  0.985182154476619  1.0000   
         C         C         1.0       0.07617017128503627           0.8772858149042589 0.9695156343664574 1.0000   
         C         C         1.0       0.08893076692842479           0.8870555185096275 0.9480104351611487 1.0000   
         H         H         1.0       0.07902947566216277           0.977138697563365  0.5787046421897103 1.0000   
         H         H         1.0       0.04493184411861373           0.027645454368047107         0.0019863281420273715        1.0000   
         H         H         1.0       0.07390609081950351           0.040004145801622926         0.03398083266286789          1.0000   
         H         H         1.0       0.11169380920607361           0.9676304838853913 0.6063886626185032 1.0000   
         H         H         1.0       0.0578600691394507  0.006473326275155733         0.95892351333311   1.0000   
         H         H         1.0       0.05030618082559211           0.03203956724112911          0.9261318856807128 1.0000   
         H         H         1.0       0.08419779068106603           0.051807497670017355         0.5503548148497421 1.0000   
         H         H         1.0       0.06801024729166971           0.014237915452739669         0.5523925908734107 1.0000   
         H         H         1.0       0.0739526049108346  0.9603331455823214  0.0036882510297360227        1.0000   
         H         H         1.0       0.09043136240557277           0.9287500842953909 0.97861469622457   1.0000   
         H         H         1.0       0.04189603244134066           0.9313685949564254 0.91978627282772   1.0000   
         H         H         1.0       0.019457333860101178          0.9571606768429337 0.9453063463413673 1.0000   
         H         H         1.0       0.14830094011216824           0.9547865383693703 0.9411291468912685 1.0000   
         H         H         1.0       0.12563657293536185           0.9217146698224937 0.9527443674485603 1.0000   
         H         H         1.0       0.07875534846274333           0.9353473579073618 0.888950617626679  1.0000   
         H         H         1.0       0.1032891656809425  0.9696900078770636  0.8768867253207019 1.0000   
         H         H         1.0       0.035990916773201986          0.88904470213553   0.9301891616784    1.0000   
         H         H         1.0       0.0165223498151148  0.8713437613006146  0.8929421145750321 1.0000   
         H         H         1.0       0.07627357617190379           0.8716267952175641 0.844085766109308  1.0000   
         H         H         1.0       0.09629234249764154           0.8919778186428786 0.8759454073620621 1.0000   
         H         H         1.0       0.11797864963370397           0.8808414668530099 0.9234114783408642 1.0000   
         H         H         1.0       0.1349896823435254  0.8493608446085533  0.9509451479314952 1.0000   
         H         H         1.0       0.07619832007564777           0.852751661231068  0.0022311674588086916        1.0000   
         H         H         1.0       0.058871341229835936          0.88479290213473   0.9738290852891568 1.0000   
         C         C         1.0       0.15440435487881773           0.20689874922407187          0.6662289322472688 1.0000   
         C         C         1.0       0.15769485207115402           0.21823573373978666          0.6430367995453973 1.0000   
         C         C         1.0       0.1471760081703934  0.21048456414658112           0.6201026621953539 1.0000   
         C         C         1.0       0.1345738789024218  0.19069484935241104           0.6185165279838986 1.0000   
         C         C         1.0       0.13016956310634628           0.1801883209831537 0.6421929561216136 1.0000   
         C         C         1.0       0.13905924079679136           0.18883312871604507          0.6668586608576274 1.0000   
         H         H         1.0       0.17147439093734537           0.23059596115444286          0.6375693336637499 1.0000   
         H         H         1.0       0.1515694045562325  0.2186104334200222  0.6018094761330628 1.0000   
         H         H         1.0       0.11794549441874103           0.16585911363827882          0.6447697372974128 1.0000   
         H         H         1.0       0.13670635945882237           0.1805635395994846 0.686469462661709  1.0000   
         C         C         1.0       0.1289559620594798  0.14000552025651702           0.5968120346940389 1.0000   
         C         C         1.0       0.11642854248544321           0.1569456953286682 0.5845361914818087 1.0000   
         C         C         1.0       0.09846074038635533           0.1494018560230292 0.5683067445952827 1.0000   
         C         C         1.0       0.08941676051541769           0.12752919873799404          0.5697945634224778 1.0000   
         C         C         1.0       0.09920490285110817           0.1120740767602911 0.5872488182424105 1.0000   
         C         C         1.0       0.11987484616833322           0.11766353054420366          0.5979454148624995 1.0000   
         C         C         1.0       0.1221644104909898  0.18352848177903142           0.5905563248700963 1.0000   
         C         C         1.0       0.13856545554752742           0.18845338401293588          0.5660759739319414 1.0000   
         C         C         1.0       0.12865958852014828           0.19690426371373726          0.5423952465246008 1.0000   
         C         C         1.0       0.08538294637068519           0.21054638481044052          0.012844491705450434         1.0000   
         C         C         1.0       0.10035680550855029           0.19366748213635807          0.008539762447453247         1.0000   
         C         C         1.0       0.10248937946464937           0.17581896834911406          0.026901977175415093         1.0000   
         C         C         1.0       0.08854506347624393           0.17511604794472502          0.049271616072648516         1.0000   
         C         C         1.0       0.08057375390037924           0.1897188427784453 0.6069241729267604 1.0000   
         C         C         1.0       0.06524467683292423           0.2028819792323269 0.6201560364679048 1.0000   
         C         C         1.0       0.06664470233031894           0.22651059737072404          0.6197622314290699 1.0000   
         C         C         1.0       0.08359452109665873           0.23602116417876332          0.6043202500723471 1.0000   
         C         C         1.0       0.10003793041570368           0.2234905854698599 0.5906783405294723 1.0000   
         C         C         1.0       0.09990266028782442           0.1991621392427489 0.5947604173033515 1.0000   
         C         C         1.0       0.05466713252871669           0.23967665505925476          0.6443999310235596 1.0000   
         C         C         1.0       0.9957072759727285  0.20235537700609674           0.674814466303805  1.0000   
         C         C         1.0       0.007696703755455836          0.21550101356672918          0.6919059433125343 1.0000   
         C         C         1.0       0.025261192178840375          0.22839667508507722          0.6822433439009232 1.0000   
         C         C         1.0       0.03138220817182291           0.22840616677600178          0.6554209013723105 1.0000   
         C         C         1.0       0.015790877846166618          0.21772638083137041          0.637076908801789  1.0000   
         C         C         1.0       0.997751393757213   0.20522790506042712           0.6474826717507056 1.0000   
         C         C         1.0       0.046318446234674626          0.2654578613196207 0.6382374204570441 1.0000   
         C         C         1.0       0.04104736331444059           0.27261527822197246          0.6127377014925169 1.0000   
         C         C         1.0       0.030055115739405114          0.29305432563400896          0.6089117803036207 1.0000   
         C         C         1.0       0.028314319971047608          0.30820636217769687          0.6306085042601975 1.0000   
         C         C         1.0       0.031983873572547505          0.3005303547519027 0.6566051012276831 1.0000   
         C         C         1.0       0.04264091153036209           0.27993173566772683          0.6604175384622931 1.0000   
         C         C         1.0       0.08854129183614093           0.25824390715849127          0.6689235442911398 1.0000   
         C         C         1.0       0.10540530003936949           0.2591001489043292 0.6877878742688275 1.0000   
         C         C         1.0       0.10783663598852634           0.24143612545671223          0.7051537613517919 1.0000   
         C         C         1.0       0.09513253368379258           0.22154287867977723          0.7015287607614016 1.0000   
         C         C         1.0       0.07870643798983556           0.22079152444690656          0.6817861030310811 1.0000   
         C         C         1.0       0.07450741333016044           0.23974242664636466          0.6659255034013524 1.0000   
         H         H         1.0       0.14570425941156656           0.14476536948598873          0.6060637047203198 1.0000   
         H         H         1.0       0.08735644792656627           0.16165503103242526          0.5584572410630396 1.0000   
         H         H         1.0       0.010879331793072433          0.16954721270148002          0.9933551659705259 1.0000   
         H         H         1.0       0.12852018388429687           0.1045476075387034 0.6091618196241915 1.0000   
         H         H         1.0       0.11113815982686642           0.19815672322244787          0.5401155547465184 1.0000   
         H         H         1.0       0.08198283254713154           0.2237449214433381 0.9990319807996904 1.0000   
         H         H         1.0       0.1160396090533339  0.16294797268212058           0.023662091791483375         1.0000   
         H         H         1.0       0.16827461275350164           0.17573929821212803          0.5842942903122902 1.0000   
         H         H         1.0       0.08020857442055163           0.17096174458998897          0.6104287915277299 1.0000   
         H         H         1.0       0.05475984052245986           0.19306407074017734          0.6350631496517666 1.0000   
         H         H         1.0       0.08434398815041862           0.25490372035410025          0.6036964669991104 1.0000   
         H         H         1.0       0.11410743255781017           0.23224660750290385          0.5813846818697018 1.0000   
         H         H         1.0       0.005235401702364362          0.21578181178586237          0.71407160174307   1.0000   
         H         H         1.0       0.03739055771274491           0.2360737731993127 0.6972001896051198 1.0000   
         H         H         1.0       0.01734542279793816           0.22216287706928925          0.6151902338328824 1.0000   
         H         H         1.0       0.9879718138232045  0.19678796670341217           0.6314482734335185 1.0000   
         H         H         1.0       0.04392186107744833           0.26047416582067934          0.5942358882740895 1.0000   
         H         H         1.0       0.025621734507901728          0.2970777272167982 0.5872109987595915 1.0000   
         H         H         1.0       0.028491173609064946          0.310409155747179  0.6748745484456983 1.0000   
         H         H         1.0       0.04186243503171916           0.27355666243798643          0.6820724845470126 1.0000   
         H         H         1.0       0.08920034243674779           0.270745009848452  0.6544110544370166 1.0000   
         H         H         1.0       0.11625302245841206           0.2743709220528858 0.6885640419708918 1.0000   
         H         H         1.0       0.09814848096621331           0.20794491404252424          0.7155090587613336 1.0000   
         H         H         1.0       0.067606293020404   0.20613875178209012           0.6812583314892349 1.0000   
         C         C         1.0       0.08405044818382296           0.12464773997450271          0.7821255951167937 1.0000   
         C         C         1.0       0.08597687933985951           0.13392862882731177          0.8081355026805705 1.0000   
         C         C         1.0       0.07512518943324185           0.1545829981293269 0.8153289810521739 1.0000   
         C         C         1.0       0.060376532961697406          0.16569580983887727          0.7974925470796906 1.0000   
         C         C         1.0       0.05867145020267746           0.156430128561395  0.7722614680106131 1.0000   
         C         C         1.0       0.06901658626837345           0.1365714687590753 0.764667409147691  1.0000   
         H         H         1.0       0.09758833319221333           0.12632395470438437          0.8230582015210082 1.0000   
         H         H         1.0       0.07953030745401128           0.16206717807786694          0.8350939563599179 1.0000   
         H         H         1.0       0.046799040415000485          0.16469268370451495          0.7571358655223352 1.0000   
         H         H         1.0       0.06622763298605716           0.13075036684060048          0.7437643892311725 1.0000   
         C         C         1.0       0.00867317440398363           0.16838442262163492          0.7968794385275176 1.0000   
         C         C         1.0       0.020455946234990918          0.18870791458408182          0.7964828140986905 1.0000   
         C         C         1.0       0.00800769740305407           0.20913651095038488          0.793850575294364  1.0000   
         C         C         1.0       0.9845067810005532  0.20846001432115382           0.7961413807128899 1.0000   
         C         C         1.0       0.9734442575111808  0.18745797226633246           0.7957141191033904 1.0000   
         C         C         1.0       0.9860348308553765  0.16757829209046973           0.7981730642542102 1.0000   
         C         C         1.0       0.047110592070774615          0.18911471901091761          0.8064031974604886 1.0000   
         C         C         1.0       0.0642594037295108  0.20690281353937445           0.792394170995658  1.0000   
         C         C         1.0       0.057234049101793597          0.2188331915593881 0.7694892051684611 1.0000   
         C         C         1.0       0.07219397196397564           0.23542980878013345          0.7586703595613947 1.0000   
         C         C         1.0       0.09370796523787024           0.23969274877017552          0.770656055467843  1.0000   
         C         C         1.0       0.10114267975244923           0.22581306119071137          0.7914447435845157 1.0000   
         C         C         1.0       0.0863559722514401  0.2097334323201619  0.8023843489462914 1.0000   
         C         C         1.0       0.03527858258300487           0.17999055948229029          0.8563093520913971 1.0000   
         C         C         1.0       0.026334132713732746          0.1868209575127772 0.8807576585836512 1.0000   
         C         C         1.0       0.027226252585788032          0.20908995905253341          0.8890204875447554 1.0000   
         C         C         1.0       0.037209760166464934          0.22486279269527612          0.8724569626166965 1.0000   
         C         C         1.0       0.046838320893172185          0.21790002862560032          0.848328729513546  1.0000   
         C         C         1.0       0.04496400498732145           0.19541049323699305          0.8388735966325614 1.0000   
         C         C         1.0       0.02130188497740981           0.21546541898925464          0.9195069482841289 1.0000   
         C         C         1.0       0.9520498981021142  0.19927351821758854           0.944693398385835  1.0000   
         C         C         1.0       0.969180740862301   0.19842732004050678           0.9632125068857823 1.0000   
         C         C         1.0       0.9915423389136692  0.2021201084956279  0.9547332046106976 1.0000   
         C         C         1.0       0.9976743331969123  0.20506808868443688           0.9279180802120945 1.0000   
         C         C         1.0       0.9798071199102397  0.20360109001373716           0.9101206962871844 1.0000   
         C         C         1.0       0.9572111900107414  0.20145204946155038           0.9184542093175336 1.0000   
         C         C         1.0       0.01656957024495931           0.24253069597095253          0.9253744018022095 1.0000   
         C         C         1.0       0.005389399374063908          0.25728855417665397          0.9080171177344116 1.0000   
         C         C         1.0       0.002839573003128093          0.28076981500121817          0.9143266588141611 1.0000   
         C         C         1.0       0.008570443327042598          0.28879580576790254          0.9395956793595279 1.0000   
         C         C         1.0       0.017390384997364894          0.2743691506402953 0.9574414140752068 1.0000   
         C         C         1.0       0.021606242780112694          0.2516620515034078 0.9512508482049075 1.0000   
         C         C         1.0       0.06440247718942585           0.2187929550811701 0.9290030111604934 1.0000   
         C         C         1.0       0.08472575787891107           0.21062482332322657          0.9378688632384606 1.0000   
         C         C         1.0       0.08648934503334348           0.189840523538346  0.9498971712122086 1.0000   
         C         C         1.0       0.06692561424154178           0.17808227304737728          0.9549158495416222 1.0000   
         C         C         1.0       0.0458642475517732  0.18623194573278815           0.9459585868315497 1.0000   
         C         C         1.0       0.04401858416290216           0.20648395409469444          0.93263419564404   1.0000   
         H         H         1.0       0.016454946317480564          0.1518296539358728 0.7998017977282439 1.0000   
         H         H         1.0       0.01423866716429445           0.22608261025809218          0.7929756873083544 1.0000   
         H         H         1.0       0.9741945955479039  0.2239178419883671  0.7962507947791901 1.0000   
         H         H         1.0       0.9777718201502632  0.1517724879619866  0.7984440203632758 1.0000   
         H         H         1.0       0.042019131433473904          0.21310985142802524          0.757682467844622  1.0000   
         H         H         1.0       0.06457363627452281           0.24622369142317393          0.7428055799151113 1.0000   
         H         H         1.0       0.11795722640125038           0.2298696917716072 0.7991151741561804 1.0000   
         H         H         1.0       0.09159802370548767           0.20133262260004173          0.8203361140334546 1.0000   
         H         H         1.0       0.03237282384798168           0.1620726632994883 0.850605533290563  1.0000   
         H         H         1.0       0.01936747611693179           0.17365398748439756          0.8944127433780046 1.0000   
         H         H         1.0       0.03775763662085364           0.24373336187001118          0.8759602184493922 1.0000   
         H         H         1.0       0.05050219450838225           0.2313049035815057 0.8325873104390116 1.0000   
         H         H         1.0       0.9653730683317082  0.1998701734774564  0.9849194547663834 1.0000   
         H         H         1.0       0.003364330325442255          0.20317630740226403          0.9726623731523605 1.0000   
         H         H         1.0       0.980903828492429   0.2048640411452667  0.8881784200784311 1.0000   
         H         H         1.0       0.9443228665891238  0.20235573382126623           0.9026218767060848 1.0000   
         H         H         1.0       0.0011666115233732732         0.2522810844092502 0.8871039742059363 1.0000   
         H         H         1.0       0.9987359703682354  0.2932133070930811  0.8991808005627644 1.0000   
         H         H         1.0       0.02246881095812192           0.28168467323528484          0.9773092918555675 1.0000   
         H         H         1.0       0.03190755235909304           0.24264462797261976          0.9663636714355825 1.0000   
         H         H         1.0       0.06462709204159468           0.23486139473732062          0.9215966195345897 1.0000   
         H         H         1.0       0.09935174450772288           0.22260286648966657          0.9382059381604266 1.0000   
         H         H         1.0       0.06686363171406424           0.16308757983727865          0.966575656363756  1.0000   
         H         H         1.0       0.030861358956300485          0.17432813948273707          0.9489182362581497 1.0000   
         C         C         1.0       0.9118312951112506  0.02980443357189544           0.6998552139798674 1.0000   
         C         C         1.0       0.9210642461628787  0.026769950214749375         0.7256377672798554 1.0000   
         C         C         1.0       0.931702149932812   0.044682306695994774         0.7379930954604165 1.0000   
         C         C         1.0       0.9328419173124542  0.06674841042850027           0.7275509614935749 1.0000   
         C         C         1.0       0.9213526518983893  0.06983296954676256           0.7031237254512642 1.0000   
         C         C         1.0       0.9120255392033929  0.05109518971905443           0.6886979851920688 1.0000   
         H         H         1.0       0.9196521097387925  0.010569270379733764         0.7369973387556991 1.0000   
         H         H         1.0       0.9373883841258879  0.045218793820445094         0.7590051092810305 1.0000   
         H         H         1.0       0.9201689179770527  0.08598872261093334           0.6957766595898918 1.0000   
         H         H         1.0       0.9054117579461051  0.05466727817674039           0.6696213788614951 1.0000   
         C         C         1.0       0.9719206926452909  0.10369450464716985           0.7106933630899952 1.0000   
         C         C         1.0       0.9558269396376576  0.107578969138748   0.7311432080457521 1.0000   
         C         C         1.0       0.9549966167006412  0.1302094347603077  0.7421130981786953 1.0000   
         C         C         1.0       0.9663761056390582  0.14795535214553054           0.7297951004045171 1.0000   
         C         C         1.0       0.980738603523907   0.14365290572292275           0.7080733232489663 1.0000   
         C         C         1.0       0.982252204241987   0.1216573916166152  0.6982342605380037 1.0000   
         C         C         1.0       0.9420874946227212  0.08743911155300077           0.7467992878656239 1.0000   
         C         C         1.0       0.9619240055532685  0.08200622209231759           0.7681180879407462 1.0000   
         C         C         1.0       0.9649544574360582  0.09533823313123747           0.7914442710580284 1.0000   
         C         C         1.0       0.9855508373390733  0.09452251648348765           0.8053192981559731 1.0000   
         C         C         1.0       0.0026938739755895114         0.07923644840351697          0.7989469003699495 1.0000   
         C         C         1.0       0.9985322258617688  0.06567874952421077           0.776069129223757  1.0000   
         C         C         1.0       0.9788251668222401  0.0676271205782097  0.7614232150721795 1.0000   
         C         C         1.0       0.9060035777529751  0.11218630802346156           0.7472542769497127 1.0000   
         C         C         1.0       0.8863868764232565  0.12191930503857407           0.7597620441807688 1.0000   
         C         C         1.0       0.8793691515256663  0.11469096903361302           0.784994170374348  1.0000   
         C         C         1.0       0.8920398984967689  0.09818889607240397           0.7981852901248776 1.0000   
         C         C         1.0       0.9106350830123632  0.08844170686798915           0.7852200484116248 1.0000   
         C         C         1.0       0.9185587794143696  0.09586719050157314           0.760312036102811  1.0000   
         C         C         1.0       0.8582920747309776  0.12714786989706311           0.8005098606652438 1.0000   
         C         C         1.0       0.9118901815779956  0.1763041342066415  0.8210213519861892 1.0000   
         C         C         1.0       0.8974114661932884  0.18086154080792227           0.799752760974037  1.0000   
         C         C         1.0       0.8787484299768425  0.16704349468755428           0.7947858136238956 1.0000   
         C         C         1.0       0.8726097191437525  0.14836296380336006           0.811926136649255  1.0000   
         C         C         1.0       0.8856432968529008  0.1465351406841821  0.8357322508535517 1.0000   
         C         C         1.0       0.9046916208613917  0.15961721040453297           0.8398030203947471 1.0000   
         C         C         1.0       0.8453052948890334  0.11079663035748961           0.8201109001709704 1.0000   
         C         C         1.0       0.8426696215546263  0.0878094610303789  0.8135554595267973 1.0000   
         C         C         1.0       0.8294790267275249  0.07400276484847693           0.8295749667526645 1.0000   
         C         C         1.0       0.8180657200742619  0.08228442131320883           0.8516776818315422 1.0000   
         C         C         1.0       0.8192640160478782  0.10551033007577053           0.8579352076312059 1.0000   
         C         C         1.0       0.834538810488714   0.11971388632820601           0.8439139932820379 1.0000   
         C         C         1.0       0.8239892143447135  0.15092053556389945           0.7826595802946238 1.0000   
         C         C         1.0       0.8039043902285736  0.15180717705464336           0.7698531854490346 1.0000   
         C         C         1.0       0.79846005226682    0.13560765478854905           0.7489875337380271 1.0000   
         C         C         1.0       0.8137743229058927  0.11859346617521772           0.7438088903006179 1.0000   
         C         C         1.0       0.8333830332760814  0.11607597728413992           0.7587118621428087 1.0000   
         C         C         1.0       0.838441158325181   0.13174037251576956           0.7794167755463002 1.0000   
         H         H         1.0       0.9758118066340251  0.08614529387384676           0.7064181261483621 1.0000   
         H         H         1.0       0.9475271439772628  0.13405089859765804           0.7616731180446692 1.0000   
         H         H         1.0       0.9632802692120657  0.1642625394269601  0.7381711209777618 1.0000   
         H         H         1.0       0.9967289301801552  0.1177582677139268  0.685364255869161  1.0000   
         H         H         1.0       0.952386658183763   0.10760706938560874           0.7978689237925282 1.0000   
         H         H         1.0       0.9881355565361828  0.10609494457263235           0.8214569637712076 1.0000   
         H         H         1.0       0.010863264686785223          0.05362667085515555          0.7695375733310484 1.0000   
         H         H         1.0       0.9795569703973388  0.05600323636884358           0.7442871412659801 1.0000   
         H         H         1.0       0.9113770978060705  0.11761441751004065           0.7266730521769721 1.0000   
         H         H         1.0       0.8782867033495046  0.13528965474313173           0.7477048213054787 1.0000   
         H         H         1.0       0.8885588489402222  0.0921314296518931  0.8178076633154101 1.0000   
         H         H         1.0       0.9175686326306207  0.07305391590801971           0.7933976659694828 1.0000   
         H         H         1.0       0.9015021629906302  0.19279075766544745           0.7839134802181156 1.0000   
         H         H         1.0       0.8694683263837236  0.16991324517058856           0.7766431474777624 1.0000   
         H         H         1.0       0.8831301804050892  0.1320665863173712  0.8494228219574557 1.0000   
         H         H         1.0       0.9151999596937814  0.15644208609413324           0.8567025251761335 1.0000   
         H         H         1.0       0.8484642052133327  0.07946752935956176           0.796381681805558  1.0000   
         H         H         1.0       0.8279809503858702  0.05583161571466595           0.8256423143363286 1.0000   
         H         H         1.0       0.8091394993357124  0.11424861166727666           0.872878608548727  1.0000   
         H         H         1.0       0.8355916290274497  0.13763437285177368           0.8494198720495323 1.0000   
         H         H         1.0       0.8263438034393122  0.16405618449067053           0.7998523359627634 1.0000   
         H         H         1.0       0.7907748849952263  0.1648562344571297  0.7723180836101112 1.0000   
         H         H         1.0       0.8111042909728645  0.11026518911866846           0.7249328444545271 1.0000   
         H         H         1.0       0.8412630856908972  0.10010634286749262           0.7537323523686925 1.0000   
         C         C         1.0       0.840055320987534   0.055296759741457646         0.9005770736402089 1.0000   
         C         C         1.0       0.8595950238191672  0.04362119227459029           0.8977335570430263 1.0000   
         C         C         1.0       0.8792785569719666  0.05213060951269526           0.9096441694723326 1.0000   
         C         C         1.0       0.8802107030762362  0.07332378530815219           0.9238864798759089 1.0000   
         C         C         1.0       0.8594602494127053  0.08337112348723882           0.9279335951356213 1.0000   
         C         C         1.0       0.8397054516070018  0.07442781554844939           0.9166363384896754 1.0000   
         H         H         1.0       0.8613387669120545  0.02698544506759948           0.8864639929570693 1.0000   
         H         H         1.0       0.8946424013893038  0.041514317457977956         0.9060070751578334 1.0000   
         H         H         1.0       0.8575649056469344  0.09860321525019868           0.9394077697319199 1.0000   
         H         H         1.0       0.8242185007075873  0.08353429194548825           0.9194684273001733 1.0000   
         C         C         1.0       0.8934371027596072  0.12401590155783512           0.9155940220028448 1.0000   
         C         C         1.0       0.903289779042582   0.11104016852038737           0.9358961776409631 1.0000   
         C         C         1.0       0.9162255561354448  0.12322390594756022           0.9555603524028871 1.0000   
         C         C         1.0       0.9180786308350404  0.14735205010917463           0.9554869181178669 1.0000   
         C         C         1.0       0.9072874767576006  0.1596812304931751  0.9347373637584687 1.0000   
         C         C         1.0       0.8936537452062933  0.14797977253889327           0.9171225485347706 1.0000   
         C         C         1.0       0.9023021032558424  0.08381244737241733           0.9376727822475284 1.0000   
         C         C         1.0       0.9257209497934418  0.07677276627658913           0.9241072828062264 1.0000   
         C         C         1.0       0.9449189539960972  0.07602330190699338           0.9410915039485792 1.0000   
         C         C         1.0       0.9654013434877499  0.06798690860797688           0.9316688584138966 1.0000   
         C         C         1.0       0.9673598282275138  0.061808780205761193         0.9042128518447005 1.0000   
         C         C         1.0       0.9500578710625573  0.06666502205591751           0.8863599107012925 1.0000   
         C         C         1.0       0.9289797155175638  0.07406977647036206           0.8962642528826109 1.0000   
         C         C         1.0       0.887348880164217   0.08939746053035887           0.9874436808337519 1.0000   
         C         C         1.0       0.8917721031307877  0.08580666246287416           0.01443689076396093          1.0000   
         C         C         1.0       0.9056261023109555  0.06793357203666806           0.022490688779111645         1.0000   
         C         C         1.0       0.9123148443698929  0.05177291360945985           0.0030693223067725928        1.0000   
         C         C         1.0       0.9073667702804297  0.054722458742277234         0.9761648832012508 1.0000   
         C         C         1.0       0.8969261819128038  0.07591834751994053           0.9682486980339899 1.0000   
         C         C         1.0       0.9751234642826713  0.06416470859024405           0.6105759881501591 1.0000   
         C         C         1.0       0.04589965271481056           0.08730280511834511          0.621282244604077  1.0000   
         C         C         1.0       0.028394961878861258          0.1026704793964937 0.6149565035778017 1.0000   
         C         C         1.0       0.005377826551325793          0.09562694030294983          0.6115317695506381 1.0000   
         C         C         1.0       0.9998370688262962  0.07263176555680605           0.6163869976126574 1.0000   
         C         C         1.0       0.01725624192278974           0.05777406262330708          0.6251703931770934 1.0000   
         C         C         1.0       0.03947158017108121           0.06500734339376796          0.6270637808195346 1.0000   
         C         C         1.0       0.9672973541926452  0.041759484858976924         0.625078864498726  1.0000   
         C         C         1.0       0.9512231325180786  0.027279881121688998         0.6135071241638742 1.0000   
         C         C         1.0       0.9386080137484669  0.011028713776623402         0.6283516419029284 1.0000   
         C         C         1.0       0.9448755363868565  0.007810815830129548         0.6551648565200826 1.0000   
         C         C         1.0       0.962098033780044   0.020456323806524512         0.6667161551850284 1.0000   
         C         C         1.0       0.9730592922072556  0.03758375311088196           0.6511852296037666 1.0000   
         C         C         1.0       0.9556353355242763  0.09828174957255723           0.6410484237368101 1.0000   
         C         C         1.0       0.9381641384912953  0.11097204143882568           0.6497461239536242 1.0000   
         C         C         1.0       0.9165357209753265  0.10738724861823426           0.6403821791707895 1.0000   
         C         C         1.0       0.870068624355312   0.07750234184028136           0.09888884319551439          1.0000   
         C         C         1.0       0.8817041830289842  0.07341123616217575           0.07614172189730994          1.0000   
         C         C         1.0       0.953933661756207   0.080909364980274   0.6198788811213437 1.0000   
         H         H         1.0       0.8864341801917     0.11660000509721677           0.8972491703943846 1.0000   
         H         H         1.0       0.9239328978198978  0.11422679395624792           0.9709821977500358 1.0000   
         H         H         1.0       0.9269122724777897  0.15615231244935693           0.9724172147573782 1.0000   
         H         H         1.0       0.8849851392782773  0.15829628020259642           0.9020550955020104 1.0000   
         H         H         1.0       0.9438763974719735  0.07888031295265838           0.9628428584209037 1.0000   
         H         H         1.0       0.9802173204001201  0.06709043716028193           0.9435205576601925 1.0000   
         H         H         1.0       0.9524173625773825  0.064280090265878   0.8644255801984437 1.0000   
         H         H         1.0       0.9140310875493097  0.07735958036955201           0.8819748332698742 1.0000   
         H         H         1.0       0.8775673007442075  0.10412839311917543           0.9812217906738633 1.0000   
         H         H         1.0       0.888418466725179   0.10058179650483974           0.028345894708965647         1.0000   
         H         H         1.0       0.9261285982683691  0.040069616734633516         0.007838514519714401         1.0000   
         H         H         1.0       0.9151521616557213  0.04388044704290397           0.9603562721605369 1.0000   
         H         H         1.0       0.03130867346880062           0.11982967402222824          0.6076730883763427 1.0000   
         H         H         1.0       0.9943579553599537  0.10741499870248097           0.60096601380276   1.0000   
         H         H         1.0       0.014610167962304077          0.03957054426111942          0.6302009685190862 1.0000   
         H         H         1.0       0.05241787206356041           0.05221867609254372          0.6330402795385329 1.0000   
         H         H         1.0       0.9465581389372255  0.03043979203080438           0.5930024948117008 1.0000   
         H         H         1.0       0.9256253054093019  0.0010966682041562144        0.6186206701607301 1.0000   
         H         H         1.0       0.9661227879360612  0.020062832451896554         0.6886364052676823 1.0000   
         H         H         1.0       0.9850360290116693  0.048440773139079844         0.6633999906974892 1.0000   
         H         H         1.0       0.9725315965509101  0.10279386417410893           0.6484349551274522 1.0000   
         H         H         1.0       0.9413130781058768  0.12295399695884562           0.6667937977662417 1.0000   
         H         H         1.0       0.8545775641019481  0.06859350498014263           0.10020523366301504          1.0000   
         H         H         1.0       0.8727293873643494  0.0643015055719489  0.059423231710049595         1.0000   
         C         C         1.0       0.5499333297091182  0.5316162851511227  0.6470305968446994 1.0000   
         C         C         1.0       0.5422250951207704  0.5110245007385218  0.6362064345537025 1.0000   
         C         C         1.0       0.5575877594181857  0.49413903376930657           0.6270615470002675 1.0000   
         C         C         1.0       0.5807503894374441  0.5000633765275955  0.6236055127808428 1.0000   
         C         C         1.0       0.5881943324055998  0.5215836446566089  0.6337925967037881 1.0000   
         C         C         1.0       0.5724343249342366  0.5370027202504827  0.644037435484191  1.0000   
         H         H         1.0       0.5235811110099997  0.5072162318272181  0.6369412143656515 1.0000   
         H         H         1.0       0.5514772093494713  0.47839612591324987           0.6185314940582014 1.0000   
         H         H         1.0       0.6061467492642677  0.5267562326633228  0.6352656044802324 1.0000   
         H         H         1.0       0.579453250555453   0.552672185070139   0.6542186024870528 1.0000   
         C         C         1.0       0.6220156968853198  0.5144749891833826  0.586790740974403  1.0000   
         C         C         1.0       0.6208101792346541  0.49180883574369216           0.5969567824732307 1.0000   
         C         C         1.0       0.6404331909295189  0.47980856550746104           0.5963408379601137 1.0000   
         C         C         1.0       0.6614083048374981  0.4885503518355072  0.5885031620035754 1.0000   
         C         C         1.0       0.6630940468683043  0.5110682083636869  0.5826539248961687 1.0000   
         C         C         1.0       0.6611928782424994  0.5304583168129322  0.0854680134311887 1.0000   
         C         C         1.0       0.5978285784021522  0.4819590645800699  0.6100970509681545 1.0000   
         C         C         1.0       0.5869617204693129  0.47099786535286126           0.5837626680498458 1.0000   
         C         C         1.0       0.5917330810771139  0.44888020795647    0.5770467325896673 1.0000   
         C         C         1.0       0.5668418749281542  0.4679878597609741  0.08114829849113558          1.0000   
         C         C         1.0       0.5523763871126419  0.48562917265977157           0.07617410872348152          1.0000   
         C         C         1.0       0.5571678236575907  0.5081314426134657  0.08604372619177747          1.0000   
         C         C         1.0       0.5756685340486767  0.5118845801701457  0.10167896811695876          1.0000   
         C         C         1.0       0.616944821489765   0.47749316067644515           0.6573001453834357 1.0000   
         C         C         1.0       0.6257796601491491  0.4646799439122544  0.6777400967882373 1.0000   
         C         C         1.0       0.6213621362908364  0.44193488713793033           0.6795617091466898 1.0000   
         C         C         1.0       0.605646099977541   0.4326423171201101  0.661332824128516  1.0000   
         C         C         1.0       0.5960726727938279  0.4452658143157914  0.6409981250611425 1.0000   
         C         C         1.0       0.6033815567608101  0.4680448527446287  0.6369087777531778 1.0000   
         C         C         1.0       0.6308483288825384  0.4293914142948101  0.7058817352551386 1.0000   
         C         C         1.0       0.6909856412497214  0.47004776576536206           0.7310861153660156 1.0000   
         C         C         1.0       0.6750812203288326  0.46534978562733936           0.749927397984143  1.0000   
         C         C         1.0       0.6570010877961973  0.44949935317856393           0.7437274871072067 1.0000   
         C         C         1.0       0.6540673726242964  0.44152943951986556           0.7167217331753089 1.0000   
         C         C         1.0       0.6720470054308614  0.44390358258863005           0.6992725500608292 1.0000   
         C         C         1.0       0.689861284229233   0.4593239519046338  0.7049926291529411 1.0000   
         C         C         1.0       0.6390449306280521  0.4037454925039251  0.7010523717183521 1.0000   
         C         C         1.0       0.6408230700566675  0.3927497758620737  0.6754885895868621 1.0000   
         C         C         1.0       0.6467376056093538  0.3706829241893424  0.6732505877609757 1.0000   
         C         C         1.0       0.6516134490684788  0.3574099011617576  0.6959371422445852 1.0000   
         C         C         1.0       0.6508994901425834  0.3676952868699126  0.720977276956987  1.0000   
         C         C         1.0       0.6436955180989797  0.39054393699421713           0.724561776410439  1.0000   
         C         C         1.0       0.5914777686762674  0.4132857749497849  0.7214884383706608 1.0000   
         C         C         1.0       0.5702477565012919  0.4153386404958216  0.7341311778355983 1.0000   
         C         C         1.0       0.5644537082086821  0.4360144891806066  0.7458592261504647 1.0000   
         C         C         1.0       0.58118706007932    0.45311773240920716           0.7491717707745228 1.0000   
         C         C         1.0       0.6028743012863315  0.4503063502146389  0.7373889696311116 1.0000   
         C         C         1.0       0.6082177870303954  0.4301276884873432  0.7240987746737755 1.0000   
         H         H         1.0       0.6063399237824197  0.5250067120358966  0.5826009868579561 1.0000   
         H         H         1.0       0.6405118109179448  0.4638860266943655  0.6062134381020682 1.0000   
         H         H         1.0       0.6766751104003088  0.4784031943549645  0.5912172220314023 1.0000   
         H         H         1.0       0.6663956791971709  0.5485202797572217  0.08334344238709868          1.0000   
         H         H         1.0       0.6036060418560653  0.4405648695244097  0.5883453113161772 1.0000   
         H         H         1.0       0.5624956412499343  0.45057722924658217           0.07429610587826918          1.0000   
         H         H         1.0       0.5461453804116171  0.5219440982691057  0.07925787261901096          1.0000   
         H         H         1.0       0.5772451290834961  0.5293090258594668  0.10949590255541652          1.0000   
         H         H         1.0       0.6228078619251814  0.4947730644192932  0.6551885881451017 1.0000   
         H         H         1.0       0.6378059601737678  0.4724136341532611  0.6910078720767661 1.0000   
         H         H         1.0       0.6016952373933389  0.4144687347600209  0.6628081221035395 1.0000   
         H         H         1.0       0.5865209020821172  0.4349682766241668  0.6275996864158374 1.0000   
         H         H         1.0       0.6713896568269683  0.4755361791557242  0.7674337495747949 1.0000   
         H         H         1.0       0.6465878608010381  0.44298615504749517           0.7600475237012648 1.0000   
         H         H         1.0       0.6683407980290665  0.4370495075200889  0.6789955854063894 1.0000   
         H         H         1.0       0.7015489114707312  0.4620190761216837  0.6893501636305355 1.0000   
         H         H         1.0       0.636673548737641   0.4013690027738976  0.6572060912211902 1.0000   
         H         H         1.0       0.6412970695770122  0.36129662497357723           0.6543367042560754 1.0000   
         H         H         1.0       0.6529376718938166  0.3568246185024449  0.7378918585207471 1.0000   
         H         H         1.0       0.6430942681686196  0.3987821610702986  0.7437068026056164 1.0000   
         H         H         1.0       0.5957662583905806  0.39639273890964394           0.7141742077110634 1.0000   
         H         H         1.0       0.5581336209901453  0.4012413774572161  0.7303050935538704 1.0000   
         H         H         1.0       0.5778794291441025  0.4695919469772204  0.7595412524803125 1.0000   
         H         H         1.0       0.6160105602506861  0.4639587933581138  0.7410003190290296 1.0000   
         C         C         1.0       0.5179211751549794  0.5251536221016184  0.9097049734201873 1.0000   
         C         C         1.0       0.5136624632644334  0.5028007677280422  0.9015519838276363 1.0000   
         C         C         1.0       0.532127592236897   0.4895620610640143  0.8954446284436182 1.0000   
         C         C         1.0       0.5524068770855471  0.49938039552410485           0.8875966026777797 1.0000   
         C         C         1.0       0.5561669195734972  0.5216342775217554  0.8957730444482324 1.0000   
         C         C         1.0       0.539712189671115   0.5339544673240402  0.9088614254967415 1.0000   
         H         H         1.0       0.49786038030407664           0.4928431788085816 0.9000250383525514 1.0000   
         H         H         1.0       0.5300766751997174  0.47179411945555194           0.8894315221108772 1.0000   
         H         H         1.0       0.5720711448996355  0.5302417158620931  0.8918440897483485 1.0000   
         H         H         1.0       0.5435363652887478  0.5519284197219843  0.9122728267422155 1.0000   
         C         C         1.0       0.5824706228592492  0.5187361995109995  0.8386919044217018 1.0000   
         C         C         1.0       0.5884524540819721  0.4997829816008919  0.8520129585059695 1.0000   
         C         C         1.0       0.6107371978640983  0.4914754131344755  0.8452829766709856 1.0000   
         C         C         1.0       0.6273381568927706  0.5039045026350745  0.8316528006746418 1.0000   
         C         C         1.0       0.6208304910315914  0.5253882107204304  0.8231873654549968 1.0000   
         C         C         1.0       0.5973683674756276  0.5312339644655163  0.8247553040206507 1.0000   
         C         C         1.0       0.5717367749478942  0.4855815633752231  0.8711591589682597 1.0000   
         C         C         1.0       0.5618990366295512  0.46892226053691693           0.8489539927260068 1.0000   
         C         C         1.0       0.5720081824168395  0.44780185046340565           0.8422669972909116 1.0000   
         C         C         1.0       0.5631314058747298  0.433060411065448   0.822162582085738  1.0000   
         C         C         1.0       0.5452302633744679  0.4402118578675538  0.8073821356942329 1.0000   
         C         C         1.0       0.5350898927156403  0.4610866364147785  0.814210960592919  1.0000   
         C         C         1.0       0.5450719971558206  0.4753860144478393  0.8324155109272819 1.0000   
         C         C         1.0       0.600902876351824   0.48639123810747475           0.9088821809091046 1.0000   
         C         C         1.0       0.6094756840680343  0.4803370761160298  0.9330265813305206 1.0000   
         C         C         1.0       0.603753291952794   0.45957086421010584           0.9447164744906178 1.0000   
         C         C         1.0       0.5878023370189566  0.44525182893815113           0.9317368616600507 1.0000   
         C         C         1.0       0.5774088096635511  0.4534479428497498  0.9081018857174814 1.0000   
         C         C         1.0       0.585080178483983   0.4733913591619219  0.8958819143547677 1.0000   
         C         C         1.0       0.6119226842941529  0.4537860354414609  0.9743753212630972 1.0000   
         C         C         1.0       0.6713865583645543  0.4955833769545107  0.9814593253364908 1.0000   
         C         C         1.0       0.6551575841353225  0.4966658463776241  0.0011750365963583143        1.0000   
         C         C         1.0       0.6378326215699268  0.4801955354489533  0.0016541159728697963        1.0000   
         C         C         1.0       0.6361334472132251  0.4638759314840211  0.9808908703414764 1.0000   
         C         C         1.0       0.653935118056801   0.4613178291419805  0.9627693031296702 1.0000   
         C         C         1.0       0.6707367835817644  0.47855169266138414           0.9622789253111322 1.0000   
         C         C         1.0       0.6150403253888325  0.42736928177923517           0.9828755279278649 1.0000   
         C         C         1.0       0.620760180042831   0.4099930657086     0.9637987514571424 1.0000   
         C         C         1.0       0.6224544024824659  0.3871015859659438  0.971208925420787  1.0000   
         C         C         1.0       0.6223709345882812  0.3824909603830274  0.9978872360175174 1.0000   
         C         C         1.0       0.6195864678815288  0.39940595589421185           0.0173270986676195 1.0000   
         C         C         1.0       0.6162281581449883  0.42170437612361733           0.009579240154922175         1.0000   
         C         C         1.0       0.570586533939418   0.4491031732878788  0.9959419155895455 1.0000   
         C         C         1.0       0.5517339927462827  0.4583668027835674  0.007514708916438462         1.0000   
         C         C         1.0       0.5514227708266938  0.48166779754301753           0.013752060681815337         1.0000   
         C         C         1.0       0.5680512562972456  0.49601584930021786           0.004956138401412069         1.0000   
         C         C         1.0       0.5864538236886304  0.4863826846943169  0.9927790478774846 1.0000   
         C         C         1.0       0.5887969636682425  0.463065591249783   0.9892105241753177 1.0000   
         H         H         1.0       0.5650564067108512  0.5260147348674447  0.8408566709676618 1.0000   
         H         H         1.0       0.6151546443904813  0.4743202834644709  0.8529064791110168 1.0000   
         H         H         1.0       0.6455650844304339  0.4984902743924629  0.8312039506183287 1.0000   
         H         H         1.0       0.5921573190297661  0.547970294487271   0.8167394579924241 1.0000   
         H         H         1.0       0.5873598652648809  0.44166264310795955           0.8525605351270844 1.0000   
         H         H         1.0       0.5738509145907617  0.41967669302994115           0.8132337661446407 1.0000   
         H         H         1.0       0.5210407092876111  0.46684809843933395           0.8017704423933708 1.0000   
         H         H         1.0       0.536290287505398   0.49188728634164924           0.8336201215340477 1.0000   
         H         H         1.0       0.6040452098601109  0.5036053619533482  0.9026383281017217 1.0000   
         H         H         1.0       0.6203560993439825  0.49390972112169423           0.9441300902622196 1.0000   
         H         H         1.0       0.58372310866248    0.42853958750078747           0.9412269080364544 1.0000   
         H         H         1.0       0.5639687121453122  0.4419231031091831  0.9004033574648161 1.0000   
         H         H         1.0       0.6540066269520708  0.5121920511811276  0.012702921722269833         1.0000   
         H         H         1.0       0.6258301581221698  0.483365238060954   0.018948436998305285         1.0000   
         H         H         1.0       0.6515909321201996  0.45018543002252653           0.9452976855018399 1.0000   
         H         H         1.0       0.6827824003303947  0.4800647489422909  0.9446544978469653 1.0000   
         H         H         1.0       0.6239672552416949  0.41461535972448343           0.9429391394507379 1.0000   
         H         H         1.0       0.6258175899438091  0.3737417650990068  0.9564649304401834 1.0000   
         H         H         1.0       0.6198862488211656  0.39497533378212074           0.0387100131112863 1.0000   
         H         H         1.0       0.6152888294755565  0.43406640374788935           0.0257176292103527 1.0000   
         H         H         1.0       0.570471016069392   0.43145157952638213           0.9885141454238869 1.0000   
         H         H         1.0       0.5367470071687551  0.4465835537968108  0.008983774064793115         1.0000   
         H         H         1.0       0.5670706704587635  0.5144470871694803  0.009444895722149571         1.0000   
         H         H         1.0       0.5991881598068834  0.49868796055328957           0.9860586712080364 1.0000   
         C         C         1.0       0.7825297250825378  0.6389500835420935  0.7104390957436442 1.0000   
         C         C         1.0       0.7623749733346986  0.6514639327864733  0.7121081210598772 1.0000   
         C         C         1.0       0.7424740509894823  0.6422835663626123  0.7241074388244908 1.0000   
         C         C         1.0       0.7413592544315947  0.6196591982384944  0.7302012648919746 1.0000   
         C         C         1.0       0.7625602064439154  0.6079904865711677  0.7296661145228125 1.0000   
         C         C         1.0       0.7828367703589838  0.6167666214704798  0.7192557810475483 1.0000   
         H         H         1.0       0.7646038535393817  0.6699367264979091  0.7082302554279793 1.0000   
         H         H         1.0       0.7284149561547314  0.6534149263017022  0.7240786170730459 1.0000   
         H         H         1.0       0.7629356512945472  0.5907761105814197  0.736072968677221  1.0000   
         H         H         1.0       0.799392284098597   0.6070542705151867  0.7190064861078204 1.0000   
         C         C         1.0       0.7239785475498989  0.5710648059181749  0.7128443193629445 1.0000   
         C         C         1.0       0.7154294747116384  0.5810937712974782  0.7373727414225305 1.0000   
         C         C         1.0       0.7002290297459807  0.5690058278852886  0.7536280691365558 1.0000   
         C         C         1.0       0.6945726379543539  0.5464800293330947  0.7452120376201914 1.0000   
         C         C         1.0       0.7058615494380821  0.5354228076772795  0.7239509026165761 1.0000   
         C         C         1.0       0.7217048899984307  0.5477724498155759  0.7080516573807114 1.0000   
         C         C         1.0       0.7190497401138997  0.6082495207459014  0.7430758106368262 1.0000   
         C         C         1.0       0.6949319486042781  0.6184094918357099  0.7329838575310982 1.0000   
         C         C         1.0       0.6754925194957854  0.6187182576978878  0.7497058972133395 1.0000   
         C         C         1.0       0.6556126821571368  0.6284770742524134  0.7428532604777105 1.0000   
         C         C         1.0       0.6523799304286851  0.6383105195064745  0.7178737148914063 1.0000   
         C         C         1.0       0.6710762343140615  0.6388048581094258  0.6999764513053839 1.0000   
         C         C         1.0       0.6911027920062291  0.6274258792735764  0.7077380521150686 1.0000   
         C         C         1.0       0.7369624204680791  0.5986220228665275  0.7912926048673153 1.0000   
         C         C         1.0       0.7381064990584532  0.6042127033985271  0.8186979631603416 1.0000   
         C         C         1.0       0.7265866106025405  0.6225884108477753  0.8296825460358386 1.0000   
         C         C         1.0       0.7173353089153868  0.6384725743965087  0.8111894539446393 1.0000   
         C         C         1.0       0.7184566544007741  0.6346637954645135  0.7838491194086075 1.0000   
         C         C         1.0       0.7253118146807525  0.6131207334612898  0.7732171075134486 1.0000   
         C         C         1.0       0.7177384796873387  0.6221681453022253  0.8603036967856459 1.0000   
         C         C         1.0       0.659507110086239   0.5764625882653275  0.8437486156163294 1.0000   
         C         C         1.0       0.679228245115844   0.5672824871850015  0.8540395458288809 1.0000   
         C         C         1.0       0.6977538256098207  0.581954196010602   0.8595995956748864 1.0000   
         C         C         1.0       0.6958157126978567  0.6058103417565892  0.8574462978091694 1.0000   
         C         C         1.0       0.6751865737341748  0.6143317269454168  0.8472608197032936 1.0000   
         C         C         1.0       0.6574095698993359  0.5992832187018898  0.8401135674188512 1.0000   
         C         C         1.0       0.712137602579948   0.6465773463504767  0.8727940117944645 1.0000   
         C         C         1.0       0.7283465401235213  0.6640200979023572  0.8705744799279219 1.0000   
         C         C         1.0       0.7287911682217247  0.6824738841543854  0.8883252556036431 1.0000   
         C         C         1.0       0.7112734071401124  0.6849152459757492  0.9078555300875003 1.0000   
         C         C         1.0       0.6936407775366664  0.6677378422196676  0.9096439827844744 1.0000   
         C         C         1.0       0.6948023154533397  0.6496223811421321  0.8924838505346572 1.0000   
         C         C         1.0       0.7290302768750296  0.6011746517015105  0.9055742705785798 1.0000   
         C         C         1.0       0.7451611378626185  0.5948278540715902  0.9239556804498821 1.0000   
         C         C         1.0       0.7679036941417057  0.6006007054419167  0.9202397128360839 1.0000   
         C         C         1.0       0.773891931932833   0.6138387247089845  0.8979047510994478 1.0000   
         C         C         1.0       0.7574073458495709  0.6191387187107178  0.879900865177693  1.0000   
         C         C         1.0       0.7350344213021598  0.6121379039418157  0.8827286954195869 1.0000   
         H         H         1.0       0.7321665132113142  0.5821435783855169  0.6974531965695647 1.0000   
         H         H         1.0       0.6928926865573549  0.5764185171076194  0.7724761420081849 1.0000   
         H         H         1.0       0.6817750459140146  0.5371202732155702  0.7574098782403159 1.0000   
         H         H         1.0       0.7279965812997323  0.5408341674048947  0.6882369304330456 1.0000   
         H         H         1.0       0.6759479022077571  0.6099564418350957  0.7685696967094614 1.0000   
         H         H         1.0       0.6415344446885469  0.6267140871847707  0.7563079940172669 1.0000   
         H         H         1.0       0.6715771181847728  0.64599891754288    0.6814758287017175 1.0000   
         H         H         1.0       0.7058808195706312  0.6248119589196824  0.6937081303354377 1.0000   
         H         H         1.0       0.7440581580796937  0.5825173684468954  0.7867626845899729 1.0000   
         H         H         1.0       0.7445266924669979  0.5911225500593907  0.8322997706846335 1.0000   
         H         H         1.0       0.7119817177565603  0.6552126050891954  0.8194086358210301 1.0000   
         H         H         1.0       0.7140129098762155  0.6492061410706881  0.7724992861795503 1.0000   
         H         H         1.0       0.6819529906370119  0.5492529933599168  0.854264055491422  1.0000   
         H         H         1.0       0.7139835150575813  0.5720914343980085  0.8623503771177996 1.0000   
         H         H         1.0       0.6747036984990106  0.6322107003363266  0.8409342279980524 1.0000   
         H         H         1.0       0.6427570406442349  0.6059333533137484  0.8304509759225764 1.0000   
         H         H         1.0       0.741269946804829   0.6613685209470251  0.8548728982079924 1.0000   
         H         H         1.0       0.74356966948528    0.6947606931696938  0.886607461861487  1.0000   
         H         H         1.0       0.6815550584360909  0.6681419390979625  0.9251045893918483 1.0000   
         H         H         1.0       0.6818083005900518  0.635557061683322   0.897011913199877  1.0000   
         H         H         1.0       0.7104358163934864  0.6000534656594344  0.9106154276696136 1.0000   
         H         H         1.0       0.7397700938051183  0.5849751490072549  0.9417893887846256 1.0000   
         H         H         1.0       0.7913491937603859  0.6180124741964791  0.8938422230545486 1.0000   
         H         H         1.0       0.7632810910151493  0.629037309951316   0.8629265264264572 1.0000   
         C         C         1.0       0.7231420435156434  0.6803123084341326  0.9730834693046165 1.0000   
         C         C         1.0       0.7122329307129576  0.6866972444352072  0.9966499403388205 1.0000   
         C         C         1.0       0.7025266547175802  0.6701879250537671  0.012799845093919071         1.0000   
         C         C         1.0       0.7040886163348957  0.6462915580554605  0.005465017942777539         1.0000   
         C         C         1.0       0.71519789581785    0.640912634914      0.9814468220360962 1.0000   
         C         C         1.0       0.7257512983522475  0.6567625355270267  0.9663676364234484 1.0000   
         H         H         1.0       0.7110438372883185  0.7039440611476601  0.001797422493825973         1.0000   
         H         H         1.0       0.6931361779414938  0.6750988790625685  0.030408220083638415         1.0000   
         H         H         1.0       0.7191198102344218  0.6229880950693     0.9757398489911703 1.0000   
         H         H         1.0       0.7332615638860658  0.6517634690699426  0.9476514412998791 1.0000   
         C         C         1.0       0.674504139899796   0.603314554869782   0.9857856524046712 1.0000   
         C         C         1.0       0.6828987412347209  0.6043188735971701  0.011707895558481285         1.0000   
         C         C         1.0       0.6810318251813221  0.58436948867142    0.025850444996098565         1.0000   
         C         C         1.0       0.6783472949351534  0.563017811353963   0.013146310906261949         1.0000   
         C         C         1.0       0.6737346022223066  0.5624213198546694  0.985883713243895  1.0000   
         C         C         1.0       0.6710805200135295  0.5829715597768425  0.9726190414071679 1.0000   
         C         C         1.0       0.695090952651175   0.6263813106035359  0.0261790072150081 1.0000   
         C         C         1.0       0.6730809209033094  0.6332670034785486  0.043180628528353804         1.0000   
         C         C         1.0       0.6699652674450276  0.6241936012688354  0.06915041350667961          1.0000   
         C         C         1.0       0.6500928120172762  0.6294667496805503  0.08337055554053019          1.0000   
         C         C         1.0       0.6351545691399018  0.6458445506686566  0.07450118417140916          1.0000   
         C         C         1.0       0.6369127930112879  0.6528506556655639  0.047611113009315975         1.0000   
         C         C         1.0       0.65551619864523    0.6472171566107083  0.03235151676611081          1.0000   
         C         C         1.0       0.732693682115278   0.6016496954170896  0.025308232495419913         1.0000   
         C         C         1.0       0.7517189226161275  0.5951978614524986  0.037514618737494176         1.0000   
         C         C         1.0       0.7572739222205631  0.6034085168102251  0.06318118548752083          1.0000   
         C         C         1.0       0.7441508857836555  0.6207682550940501  0.07435388527018061          1.0000   
         C         C         1.0       0.7245985446996834  0.6275983029663423  0.06274415372443687          1.0000   
         C         C         1.0       0.717794992476213   0.6178401774442795  0.03778330393320961          1.0000   
         C         C         1.0       0.7728429257755052  0.5880140554161832  0.5888542614601707 1.0000   
         C         C         1.0       0.725796410186232   0.5321899811766951  0.6044285688615291 1.0000   
         C         C         1.0       0.7413337343911908  0.530363353927012   0.5846372668620361 1.0000   
         C         C         1.0       0.758649595140799   0.545294550977204   0.5817127558590331 1.0000   
         C         C         1.0       0.7594295098529686  0.5655306514300579  0.5980996743007103 1.0000   
         C         C         1.0       0.7434516694975978  0.5677406873694781  0.6180792664448905 1.0000   
         C         C         1.0       0.7267944097741267  0.5505833540571465  0.6217517290116757 1.0000   
         C         C         1.0       0.785226530546413   0.6007303434081775  0.6139292964357086 1.0000   
         C         C         1.0       0.787639494526565   0.6243431549545685  0.6130492411571696 1.0000   
         C         C         1.0       0.7996683132660707  0.6356757820062229  0.6339401019954171 1.0000   
         C         C         1.0       0.8073694118536119  0.6241046653218432  0.6562297599594359 1.0000   
         C         C         1.0       0.8035935725017219  0.6004698713243753  0.6568369966308407 1.0000   
         C         C         1.0       0.7922879118953577  0.5892300920163144  0.6367693250441323 1.0000   
         C         C         1.0       0.8115598916070135  0.5664395143717533  0.5753876061165741 1.0000   
         C         C         1.0       0.8286918751974083  0.5614464961017994  0.5580941202388583 1.0000   
         C         C         1.0       0.8377937635623469  0.5924096682743891  0.01616530792007187          1.0000   
         C         C         1.0       0.8202289615320398  0.6078537706884204  0.013168304870514236         1.0000   
         C         C         1.0       0.803349431032144   0.6085838159747866  0.03289081811108763          1.0000   
         C         C         1.0       0.7961417900092768  0.5836494113938887  0.5712439316562337 1.0000   
         H         H         1.0       0.6738480051232402  0.6183482679947864  0.973026701665786  1.0000   
         H         H         1.0       0.6868238782464743  0.5845241176675897  0.04578519061716091          1.0000   
         H         H         1.0       0.6791910705885401  0.5484806871100341  0.02707671955523172          1.0000   
         H         H         1.0       0.6652594196844386  0.5837418130294018  0.9511645752496585 1.0000   
         H         H         1.0       0.6815850148240677  0.6131999967501597  0.07879930378032562          1.0000   
         H         H         1.0       0.649208957592258   0.6235813125393279  0.10290015876370062          1.0000   
         H         H         1.0       0.6252416965920544  0.6653359869680656  0.038119448675123735         1.0000   
         H         H         1.0       0.6560906306073171  0.6507785833962351  0.010956388650124937         1.0000   
         H         H         1.0       0.7283005018816772  0.5936935822063533  0.006639784875537735         1.0000   
         H         H         1.0       0.7637191089698322  0.582534841769801   0.02654772953132256          1.0000   
         H         H         1.0       0.7397295943530173  0.6233245043228911  0.605017810265825  1.0000   
         H         H         1.0       0.7163978786117987  0.6426557372986299  0.07075263401077558          1.0000   
         H         H         1.0       0.7389715146100322  0.5171920945604123  0.5676235218454883 1.0000   
         H         H         1.0       0.7705173055801138  0.5419797004732125  0.5651374920308889 1.0000   
         H         H         1.0       0.743580240181427   0.5813387609706832  0.6345854092602797 1.0000   
         H         H         1.0       0.7148721629125164  0.5529219140329432  0.6376934232301776 1.0000   
         H         H         1.0       0.78290200930325    0.6356054015675674  0.59699643685807   1.0000   
         H         H         1.0       0.8025577226488951  0.6536443293084693  0.6325755568839643 1.0000   
         H         H         1.0       0.8092873703146494  0.5931173227214507  0.6763678498710036 1.0000   
         H         H         1.0       0.7891510186263057  0.5717972418654056  0.6404887616031395 1.0000   
         H         H         1.0       0.811082009500132   0.5564661196450518  0.5945991050393075 1.0000   
         H         H         1.0       0.8402760891468437  0.5479096341304841  0.5644402652645939 1.0000   
         H         H         1.0       0.8190151648798867  0.6179905554679543  0.9941545906831577 1.0000   
         H         H         1.0       0.7904901977068811  0.6212953273506456  0.02981120663078385          1.0000   
         C         C         1.0       0.5036548006783842  0.5778055700107013  0.6603722506800527 1.0000   
         C         C         1.0       0.4817736571276561  0.5713694196322153  0.6694697356808957 1.0000   
         C         C         1.0       0.47027549421946846           0.5872225723933021 0.6875577619251719 1.0000   
         C         C         1.0       0.4793862773585904  0.6086764957399339  0.6930183566353142 1.0000   
         C         C         1.0       0.5003888299947608  0.6152937522550648  0.6814018464640316 1.0000   
         C         C         1.0       0.5124916349863081  0.6000385597407316  0.665747327336029  1.0000   
         H         H         1.0       0.47454624677070417           0.5547544565581711 0.6631117118131459 1.0000   
         H         H         1.0       0.4537874169628848  0.5816167581092235  0.69542477190877   1.0000   
         H         H         1.0       0.5064532821787309  0.6327215788126603  0.6827413265466244 1.0000   
         H         H         1.0       0.529967037835233   0.6045123113243049  0.6577981492047424 1.0000   
         C         C         1.0       0.49918483505887573           0.6456561671468105 0.7364528395772395 1.0000   
         C         C         1.0       0.4760542629681254  0.647046479383394   0.7277968530149556 1.0000   
         C         C         1.0       0.4636602820168519  0.667206219534409   0.7334930552583565 1.0000   
         C         C         1.0       0.4744816752463691  0.6863670393072044  0.7438574730275723 1.0000   
         C         C         1.0       0.49861416088633437           0.686580608929069  0.7447979629304156 1.0000   
         C         C         1.0       0.5098880771094383  0.666150293482189   0.7436675767449535 1.0000   
         C         C         1.0       0.4642453682481131  0.6257986234330726  0.7131354058434345 1.0000   
         C         C         1.0       0.4549544091662493  0.6139246938880707  0.7390602792655488 1.0000   
         C         C         1.0       0.4346984862907373  0.6212171787458843  0.7519483640041981 1.0000   
         C         C         1.0       0.42441394224062085           0.6085663019073821 0.7727188216407267 1.0000   
         C         C         1.0       0.43458149321101996           0.5882510349824194 0.7805373219458891 1.0000   
         C         C         1.0       0.4547503261316737  0.5824042612041153  0.7678963914965053 1.0000   
         C         C         1.0       0.4653971904856496  0.5956585289563812  0.749576444895813  1.0000   
         C         C         1.0       0.45287375351460707           0.6489523562790472 0.6737434113243169 1.0000   
         C         C         1.0       0.4395770603619818  0.6550432879174217  0.6518792201258324 1.0000   
         C         C         1.0       0.417651662888148   0.64737654753591    0.6484089902383988 1.0000   
         C         C         1.0       0.4081344235713018  0.6341280350945683  0.668347758006653  1.0000   
         C         C         1.0       0.42258830868626934           0.6252011815863664 0.6883476346434697 1.0000   
         C         C         1.0       0.44509203798325514           0.6326640850648803 0.6915317961403332 1.0000   
         C         C         1.0       0.40494250828596035           0.6497156499039008 0.6194390684948249 1.0000   
         C         C         1.0       0.4399497224233324  0.7100223507540249  0.5896159696830797 1.0000   
         C         C         1.0       0.43807987496874556           0.6908566764097269 0.5733014845598297 1.0000   
         C         C         1.0       0.42319827337876925           0.6730725913017407 0.5798861298711305 1.0000   
         C         C         1.0       0.4127239348801075  0.673365642009485   0.6051539758705877 1.0000   
         C         C         1.0       0.41186809192259893           0.6946349958627039 0.6183616318828998 1.0000   
         C         C         1.0       0.4249328213937606  0.7127820489506262  0.6111821829253729 1.0000   
         C         C         1.0       0.37795522218415784           0.6538768157471924 0.6192348753885485 1.0000   
         C         C         1.0       0.36589428669172436           0.664455052647723  0.6399488888668482 1.0000   
         C         C         1.0       0.34251593279314957           0.6647031265925271 0.6404097175560209 1.0000   
         C         C         1.0       0.33041867456886603           0.6572020569138536 0.6183316362181511 1.0000   
         C         C         1.0       0.34264745339467306           0.6481054565695327 0.5961292406237441 1.0000   
         C         C         1.0       0.365233933299761   0.6466719502296847  0.596475996656589  1.0000   
         C         C         1.0       0.3989674465663487  0.6053624780493249  0.6080236195412976 1.0000   
         C         C         1.0       0.4074268988556349  0.5835688805155784  0.6028739988289733 1.0000   
         C         C         1.0       0.4301284690918927  0.5802752825463995  0.5974064062749002 1.0000   
         C         C         1.0       0.4439977883935511  0.5996447259212465  0.5942055117709489 1.0000   
         C         C         1.0       0.43596619603241993           0.6213755827320419 0.5978395058214268 1.0000   
         C         C         1.0       0.4138130575842192  0.6250070564252495  0.6072857931679102 1.0000   
         H         H         1.0       0.5082314334068259  0.6295590165481262  0.7330886249822326 1.0000   
         H         H         1.0       0.4450830049018119  0.6665490215946074  0.7320680238822942 1.0000   
         H         H         1.0       0.4653889572246841  0.7025705192472766  0.7407011718320159 1.0000   
         H         H         1.0       0.5283449593650568  0.6661090637622937  0.7450620073127371 1.0000   
         H         H         1.0       0.42536464128957235           0.6356083869629238 0.7434329850707693 1.0000   
         H         H         1.0       0.407193120525408   0.6130312756957136  0.7811770669124315 1.0000   
         H         H         1.0       0.4608090355896022  0.5646451130592952  0.7721926350622198 1.0000   
         H         H         1.0       0.4823496712594187  0.5896397966368102  0.7433325345712801 1.0000   
         H         H         1.0       0.4705398453196336  0.6543977241994926  0.6733785447116959 1.0000   
         H         H         1.0       0.44694677249439596           0.6668154000824196 0.6375684452753393 1.0000   
         H         H         1.0       0.3923213232854141  0.6269617069454008  0.6647345550090146 1.0000   
         H         H         1.0       0.415132736072922   0.6115190983407912  0.7012623880474258 1.0000   
         H         H         1.0       0.443794855365193   0.6856927278729642  0.05475453558327126          1.0000   
         H         H         1.0       0.4230594209595677  0.6582961726727956  0.5653204996853597 1.0000   
         H         H         1.0       0.40230615678817006           0.6956545622335203 0.6359259022632511 1.0000   
         H         H         1.0       0.42593452563616047           0.7277155126074937 0.6235933498785038 1.0000   
         H         H         1.0       0.3740636084395263  0.6701035612607111  0.6575389845539786 1.0000   
         H         H         1.0       0.33331101549420045           0.6722201802087827 0.6580046843913854 1.0000   
         H         H         1.0       0.3340944152797002  0.6412956542791526  0.5785620358513626 1.0000   
         H         H         1.0       0.3739017496336921  0.6421167088017088  0.5775133863955597 1.0000   
         H         H         1.0       0.3826387513907097  0.607107929099913   0.6159709417211098 1.0000   
         H         H         1.0       0.3952506855106738  0.5688444634902164  0.6051566721184197 1.0000   
         H         H         1.0       0.4369409137336981  0.5813933480232373  0.05216489264707924          1.0000   
         H         H         1.0       0.44651995597956357           0.63686295366518   0.5923679232378131 1.0000   
         C         C         1.0       0.47791264260927835           0.5790013151892637 0.9108520745242084 1.0000   
         C         C         1.0       0.4544446307494354  0.5793203053141549  0.9094239785551406 1.0000   
         C         C         1.0       0.4421742813859388  0.5952111161029329  0.9256511971795685 1.0000   
         C         C         1.0       0.4524408471356263  0.608968148064866   0.945286595334198  1.0000   
         C         C         1.0       0.4766596448174819  0.6093028672672814  0.9430963065658028 1.0000   
         C         C         1.0       0.48922471192092315           0.5942372961397188 0.9270660632590917 1.0000   
         H         H         1.0       0.44554233859592685           0.5665160450128762 0.8971117645740994 1.0000   
         H         H         1.0       0.4249278210495431  0.5923584809012165  0.9269723973251348 1.0000   
         H         H         1.0       0.4866078652673898  0.6224366446064501  0.9531766888925963 1.0000   
         H         H         1.0       0.5080980904972006  0.5944992508907883  0.9284082214197228 1.0000   
         C         C         1.0       0.47252652596876493           0.6232348271390566 0.0017466918772177653        1.0000   
         C         C         1.0       0.4555801165451434  0.6364145755749908  0.9891280409000888 1.0000   
         C         C         1.0       0.4573103534349856  0.660131931327689   0.9948689946399681 1.0000   
         C         C         1.0       0.47513607796153595           0.6684699611627977 0.011629571789715687         1.0000   
         C         C         1.0       0.49172892950052854           0.6548159947847415 0.02156815521211275          1.0000   
         C         C         1.0       0.4893854256763844  0.6314533196510126  0.018708513135953675         1.0000   
         C         C         1.0       0.4403800923149756  0.623667192785209   0.9657816923471049 1.0000   
         C         C         1.0       0.42255456695879634           0.6082276553428763 0.9831373946281067 1.0000   
         C         C         1.0       0.4068330234517102  0.6178444462296692  0.00010986665758028202       1.0000   
         C         C         1.0       0.3931322420430242  0.6051055824589889  0.0170316136514177 1.0000   
         C         C         1.0       0.39389409297954747           0.5819168776581052 0.016555894629918244         1.0000   
         C         C         1.0       0.40979025203773745           0.5704408535705118 0.0002213545815650253        1.0000   
         C         C         1.0       0.42335378934600154           0.5839489331701659 0.9836533396415817 1.0000   
         C         C         1.0       0.4433268882813489  0.6574419924226761  0.9317488960380432 1.0000   
         C         C         1.0       0.4352504922094249  0.6705036189838393  0.9110355775652714 1.0000   
         C         C         1.0       0.4147071562333544  0.6651040747128453  0.899197948121758  1.0000   
         C         C         1.0       0.4003113424400737  0.6514485945183685  0.9143411269580646 1.0000   
         C         C         1.0       0.4071852561278677  0.6403791475805689  0.9366994436731635 1.0000   
         C         C         1.0       0.4290752896921158  0.6418841322638879  0.9457937993693092 1.0000   
         C         C         1.0       0.41077166952725735           0.6686461980999393 0.8674273515417151 1.0000   
         C         C         1.0       0.4564091338267442  0.7186512224206164  0.8322739145119661 1.0000   
         C         C         1.0       0.448730893432562   0.6993381165771648  0.81695010290399   1.0000   
         C         C         1.0       0.430582414583015   0.6870734369956581  0.8266114346125216 1.0000   
         C         C         1.0       0.4232446342681557  0.6895601237069128  0.8537254989005302 1.0000   
         C         C         1.0       0.42870360563554966           0.7101717088672046 0.8661598169984859 1.0000   
         C         C         1.0       0.44591413211505576           0.7248707562766616 0.8561479899641805 1.0000   
         C         C         1.0       0.38495959120832285           0.6752702248476384 0.8589765032321758 1.0000   
         C         C         1.0       0.36934284749764834           0.6836949378229715 0.8776858814627727 1.0000   
         C         C         1.0       0.3478828487036137  0.6901747766754627  0.8695095317564902 1.0000   
         C         C         1.0       0.34153339648224057           0.6882720680063867 0.8425232676518474 1.0000   
         C         C         1.0       0.35664100940044247           0.6792205900401688 0.8248184023041083 1.0000   
         C         C         1.0       0.3780734681533331  0.672462435505912   0.8324138337904985 1.0000   
         C         C         1.0       0.4028139052233873  0.6267770644880782  0.8556647286802102 1.0000   
         C         C         1.0       0.4080862787144794  0.6043078861656859  0.8506355734396799 1.0000   
         C         C         1.0       0.43069088598456284           0.5986702703038552 0.8460148368911589 1.0000   
         C         C         1.0       0.44703392509356094           0.616065298224569  0.8500495139727645 1.0000   
         C         C         1.0       0.44096375537599564           0.6379299063802555 0.8531954560721918 1.0000   
         C         C         1.0       0.41860120628394826           0.6438290273420421 0.858237389061272  1.0000   
         H         H         1.0       0.4731555908454609  0.6043071250464489  0.997639019853145  1.0000   
         H         H         1.0       0.4452882034762184  0.6718406766133991  0.98716586264666   1.0000   
         H         H         1.0       0.4758302487280522  0.6867831736426109  0.014790123518392928         1.0000   
         H         H         1.0       0.5012259734017667  0.620637840768746   0.028780854303454673         1.0000   
         H         H         1.0       0.4057028000190376  0.6363943854087476  0.0022092973149265838        1.0000   
         H         H         1.0       0.3818408058023994  0.6141068252249401  0.03082949136519031          1.0000   
         H         H         1.0       0.4114681480228311  0.5516371611422372  0.00025581804559426935       1.0000   
         H         H         1.0       0.43709006408014583           0.574665895773035  0.9731590340897881 1.0000   
         H         H         1.0       0.4606705021150975  0.6610804459246247  0.9393580207479422 1.0000   
         H         H         1.0       0.44749011621580537           0.6807768752030556 0.8981268866402357 1.0000   
         H         H         1.0       0.38315156630341113           0.6473021185964799 0.9069183422283694 1.0000   
         H         H         1.0       0.3942498252974458  0.6281470229540046  0.9452158254786499 1.0000   
         H         H         1.0       0.4563582494349574  0.6951707223020183  0.7969702376717603 1.0000   
         H         H         1.0       0.42507054073698114           0.6732216059660138 0.8126737705268314 1.0000   
         H         H         1.0       0.4212955287587737  0.7138955898303366  0.8854085529439739 1.0000   
         H         H         1.0       0.4498580596678412  0.7393908426746293  0.8706588483985926 1.0000   
         H         H         1.0       0.37305930566122925           0.686223365860863  0.8992216269926658 1.0000   
         H         H         1.0       0.3359671456770225  0.6984221688486117  0.8824950727065599 1.0000   
         H         H         1.0       0.35303484951742187           0.6793046965754106 0.8034342576256819 1.0000   
         H         H         1.0       0.3903620167903018  0.6646163320746008  0.8175048909994058 1.0000   
         H         H         1.0       0.3853655606187186  0.6311861700352367  0.859033261234886  1.0000   
         H         H         1.0       0.39361896555725595           0.5925327011594722 0.8475328661669448 1.0000   
         H         H         1.0       0.4651092860408142  0.61214311974671    0.8512130511855592 1.0000   
         H         H         1.0       0.4550604198727847  0.6500729584816688  0.8567874062440113 1.0000   
         C         C         1.0       0.6441639881350963  0.7454238564458119  0.8629371929362032 1.0000   
         C         C         1.0       0.6518529661771701  0.7340220379537226  0.8401282834911624 1.0000   
         C         C         1.0       0.6363755951803554  0.7284670203691972  0.8197449797937151 1.0000   
         C         C         1.0       0.6131620163822558  0.7327706788240782  0.8228059232399061 1.0000   
         C         C         1.0       0.6062699105653273  0.7433256912558546  0.8471611158957942 1.0000   
         C         C         1.0       0.6214755670857269  0.7491889837968662  0.8673133523123496 1.0000   
         H         H         1.0       0.6698425942930282  0.7298275727501544  0.8372726021941608 1.0000   
         H         H         1.0       0.6424371009703881  0.7215826989332004  0.7998869070750017 1.0000   
         H         H         1.0       0.5895290858854026  0.7479000717525051  0.8509400744855414 1.0000   
         H         H         1.0       0.6162358293701466  0.7591139416438878  0.8844878953219435 1.0000   
         C         C         1.0       0.5628993786890722  0.7099896972843808  0.8263367341685853 1.0000   
         C         C         1.0       0.568553335414717   0.7262697732577864  0.80848203519295   1.0000   
         C         C         1.0       0.5507248087593116  0.740222353937722   0.799387061770532  1.0000   
         C         C         1.0       0.5287982127834245  0.7375302302480109  0.8087750849762949 1.0000   
         C         C         1.0       0.5236249316160589  0.7196217875270308  0.8253536922696957 1.0000   
         C         C         1.0       0.5409006062875485  0.7071953759482319  0.8348778835626067 1.0000   
         C         C         1.0       0.5953572118498628  0.7308749867021069  0.7984883120050088 1.0000   
         C         C         1.0       0.598601808716664   0.7080306726029723  0.7803954229007672 1.0000   
         C         C         1.0       0.5897283925551252  0.706635103260195   0.7553227490480717 1.0000   
         C         C         1.0       0.5939693141676904  0.6876706703197867  0.7382674953192239 1.0000   
         C         C         1.0       0.6038158579091643  0.6682996843172883  0.7481902503209861 1.0000   
         C         C         1.0       0.6104058937952944  0.6674773769723797  0.7748507118064402 1.0000   
         C         C         1.0       0.6072442954339309  0.6875327198093564  0.7909220452162732 1.0000   
         C         C         1.0       0.5904845786240434  0.7745074506427655  0.798673059648887  1.0000   
         C         C         1.0       0.5830612462867983  0.7927816163671041  0.7846890731372141 1.0000   
         C         C         1.0       0.586682329065712   0.794374382365634   0.7573899692253356 1.0000   
         C         C         1.0       0.6019848641474593  0.7784235243155547  0.7456779284648879 1.0000   
         C         C         1.0       0.6067508266706055  0.7583631438746604  0.7581923413190846 1.0000   
         C         C         1.0       0.5995621428363467  0.7555284754320362  0.7847396109411252 1.0000   
         C         C         1.0       0.5684165349683359  0.8092363452607751  0.7408607341560666 1.0000   
         C         C         1.0       0.5227300597934829  0.7494430849290279  0.7262966147125446 1.0000   
         C         C         1.0       0.5169480995535948  0.7655789360541355  0.7452722604962364 1.0000   
         C         C         1.0       0.5291760704641592  0.7861037393413973  0.7496339219283183 1.0000   
         C         C         1.0       0.5494431415005462  0.7894235134475935  0.733830108877249  1.0000   
         C         C         1.0       0.5543360011249462  0.7726505333504842  0.713003552610025  1.0000   
         C         C         1.0       0.5417277307256008  0.753274790634052   0.7099022561641092 1.0000   
         C         C         1.0       0.5807374646557563  0.8186622611027867  0.7141732503561097 1.0000   
         C         C         1.0       0.6032637037609513  0.8255288107282057  0.7116184117971807 1.0000   
         C         C         1.0       0.6122077364563387  0.8344244370923596  0.6876238537433385 1.0000   
         C         C         1.0       0.5983618727347422  0.8352030115892851  0.6654073235960982 1.0000   
         C         C         1.0       0.5758595297444278  0.8288124902612115  0.668277393599134  1.0000   
         C         C         1.0       0.5667995970828229  0.8235884860817909  0.6927641499901293 1.0000   
         C         C         1.0       0.5368637503383327  0.840638371678261   0.7542781746110271 1.0000   
         C         C         1.0       0.530484651711274   0.8611608270118314  0.7668878916436938 1.0000   
         C         C         1.0       0.5470269958257584  0.8735257553971607  0.781375063553196  1.0000   
         C         C         1.0       0.568900547074562   0.8660732517730446  0.7832173591471069 1.0000   
         C         C         1.0       0.5749935874778912  0.8459840927809454  0.7707626984575952 1.0000   
         C         C         1.0       0.5588591715413362  0.8324357768387696  0.7557166049245931 1.0000   
         H         H         1.0       0.5747744588106862  0.6998236886987231  0.8365689514448162 1.0000   
         H         H         1.0       0.55378903249675    0.7536816967431501  0.7854661946025123 1.0000   
         H         H         1.0       0.5153527923067761  0.7503696619619588  0.8023522104973337 1.0000   
         H         H         1.0       0.537798106057474   0.6933854215105031  0.8488304930695726 1.0000   
         H         H         1.0       0.5803510352029445  0.7213349380067722  0.7465900499776115 1.0000   
         H         H         1.0       0.5891803887906517  0.6863499887504888  0.7165430556629061 1.0000   
         H         H         1.0       0.6193601920917711  0.6525302120201851  0.7843133917466822 1.0000   
         H         H         1.0       0.6120773181508591  0.6873894150319384  0.8120088224065076 1.0000   
         H         H         1.0       0.5804102709420076  0.7702882237200183  0.8168825035704746 1.0000   
         H         H         1.0       0.5747401099908527  0.8055240464074371  0.7972262739088976 1.0000   
         H         H         1.0       0.6042172676752335  0.7771157215575176  0.7239569676921846 1.0000   
         H         H         1.0       0.6145868402310718  0.7448648105870203  0.7468223009425966 1.0000   
         H         H         1.0       0.5016441378464904  0.7630688432352624  0.7583037435491949 1.0000   
         H         H         1.0       0.524666143593294   0.7982386785448956  0.7654453910077192 1.0000   
         H         H         1.0       0.5696231189703425  0.7729772297291263  0.6983601256045049 1.0000   
         H         H         1.0       0.5465156972060495  0.7401090620150087  0.6950775727043274 1.0000   
         H         H         1.0       0.6145863273534466  0.8247216778939026  0.7281261053221724 1.0000   
         H         H         1.0       0.6298111117239882  0.8392285424662911  0.6879405035874709 1.0000   
         H         H         1.0       0.5636102720427449  0.8311520831158532  0.6521708786602787 1.0000   
         H         H         1.0       0.5486721515141135  0.8215878843856503  0.6950463043074665 1.0000   
         H         H         1.0       0.5257605529479679  0.8329194122900423  0.740371768816994  1.0000   
         H         H         1.0       0.51237468912228    0.8640620705558418  0.7651913985827732 1.0000   
         H         H         1.0       0.5804323797690399  0.8765650942382047  0.7941942883590111 1.0000   
         H         H         1.0       0.5917002493292002  0.8402371590087525  0.7715372978240205 1.0000   
         C         C         1.0       0.6068856250311714  0.8015245214466868  0.6115287821757198 1.0000   
         C         C         1.0       0.6177549890187272  0.7812648240504934  0.6132579291958431 1.0000   
         C         C         1.0       0.607816222127289   0.760552912033865   0.6051422962675491 1.0000   
         C         C         1.0       0.5866693166269382  0.76060461218372    0.5923718656788376 1.0000   
         C         C         1.0       0.5751307445498931  0.7809230724058441  0.5907558547649296 1.0000   
         C         C         1.0       0.5846099115226769  0.8015285547252704  0.600434205496759  1.0000   
         H         H         1.0       0.6360872581506621  0.780837950414029   0.6228599143781383 1.0000   
         H         H         1.0       0.6181284913149327  0.7450353213661446  0.6055698387262591 1.0000   
         H         H         1.0       0.5591463998683639  0.7825877620405853  0.5802943584149559 1.0000   
         H         H         1.0       0.5751960186289786  0.8170645362930027  0.5980259249312997 1.0000   
         C         C         1.0       0.5395048560351615  0.7429503104684992  0.6100402697087878 1.0000   
         C         C         1.0       0.5392178422759857  0.7555917420893818  0.08719486605226523          1.0000   
         C         C         1.0       0.5282504217583397  0.7409699310321676  0.06930109224555125          1.0000   
         C         C         1.0       0.5064501539477622  0.7333966205893135  0.07458001125161817          1.0000   
         C         C         1.0       0.5026619487173792  0.7279948796035522  0.5997426690883957 1.0000   
         C         C         1.0       0.5175027382053078  0.7386302268648733  0.6180694190096333 1.0000   
         C         C         1.0       0.5659455160427509  0.7624241526607766  0.08327102979157774          1.0000   
         C         C         1.0       0.580693521577459   0.7398589014985778  0.09098918598275163          1.0000   
         C         C         1.0       0.5831046496887959  0.7231323154071636  0.07232977160016718          1.0000   
         C         C         1.0       0.598074524012925   0.7056334692552984  0.07665173833015082          1.0000   
         C         C         1.0       0.6082093650043557  0.7015747081823249  0.10176377236097078          1.0000   
         C         C         1.0       0.5944909477313597  0.6893220444317066  0.6219715984274593 1.0000   
         C         C         1.0       0.5863007617420358  0.7099932344497419  0.613788354884015  1.0000   
         C         C         1.0       0.5532364226600153  0.7760237112772052  0.03384583520116702          1.0000   
         C         C         1.0       0.5564704131943161  0.7716198101212254  0.0063774998571537456        1.0000   
         C         C         1.0       0.5770983506530429  0.7626470319370584  0.9970284766040829 1.0000   
         C         C         1.0       0.5950267368682222  0.763202909820102   0.01499302099014388          1.0000   
         C         C         1.0       0.5919784905819871  0.768056924424404   0.041679457863097236         1.0000   
         C         C         1.0       0.57057176833178    0.770214184852812   0.05318800535178281          1.0000   
         C         C         1.0       0.5773327915897515  0.7469548958537228  0.9686665817352365 1.0000   
         C         C         1.0       0.5456886940558984  0.6854090945779878  0.004737349704620808         1.0000   
         C         C         1.0       0.5312112453831012  0.7011136336617199  0.9918576284986397 1.0000   
         C         C         1.0       0.540544673727167   0.7198096885861287  0.9794907605588703 1.0000   
         C         C         1.0       0.5646168858953601  0.7245848351356032  0.9796953528964942 1.0000   
         C         C         1.0       0.5781857977573001  0.7092445863783632  0.9939243945403067 1.0000   
         C         C         1.0       0.5687711805776722  0.6895441688623074  0.003405041543141696         1.0000   
         C         C         1.0       0.6029050463889735  0.7440484448487659  0.9564841536688766 1.0000   
         C         C         1.0       0.6193080830055452  0.7612987155922268  0.9574992940541377 1.0000   
         C         C         1.0       0.6387862982227344  0.7599118180638136  0.9428282573187823 1.0000   
         C         C         1.0       0.6434621068966082  0.7402871923930062  0.9276032333494809 1.0000   
         C         C         1.0       0.6286471509483516  0.7225137618804616  0.9274037985361593 1.0000   
         C         C         1.0       0.6086409748518253  0.7248759535129975  0.9404040888846174 1.0000   
         C         C         1.0       0.5540883997849962  0.7438492607240678  0.9224017814894763 1.0000   
         C         C         1.0       0.5482724645090429  0.7517225668202322  0.8974900852041408 1.0000   
         C         C         1.0       0.5506216837813752  0.7748807084448888  0.891148721384201  1.0000   
         C         C         1.0       0.560785755585922   0.7895638649108478  0.9102812752585595 1.0000   
         C         C         1.0       0.5680673025684579  0.7808257144989749  0.9341869732740946 1.0000   
         C         C         1.0       0.5660558456797086  0.757826408631227   0.9410162969917574 1.0000   
         H         H         1.0       0.5502684458030744  0.7513021637449266  0.6248831900436842 1.0000   
         H         H         1.0       0.538060455196365   0.7342944913106365  0.05243788969920393          1.0000   
         H         H         1.0       0.49791738929922696           0.7239552593693873 0.05836822682149867          1.0000   
         H         H         1.0       0.5115019193381893  0.744192760290326   0.6371898419850468 1.0000   
         H         H         1.0       0.5745041981258975  0.7240183622176714  0.052798344739503955         1.0000   
         H         H         1.0       0.6021852119016095  0.6944933613731905  0.0594548114748652 1.0000   
         H         H         1.0       0.6000549056713228  0.6866212470805954  0.6426442014329056 1.0000   
         H         H         1.0       0.5875145168183035  0.7231733421600768  0.6289378068019305 1.0000   
         H         H         1.0       0.5359696465972396  0.7805604072503582  0.04100338761264943          1.0000   
         H         H         1.0       0.5427178663097526  0.7744706298315731  0.9924164593637423 1.0000   
         H         H         1.0       0.6114336474714557  0.7563089046476054  0.009577890402263423         1.0000   
         H         H         1.0       0.6071976019962187  0.7648936736786592  0.05361888380237878          1.0000   
         H         H         1.0       0.5125929247497966  0.6960957663061957  0.9924125614020918 1.0000   
         H         H         1.0       0.5300755041193997  0.7318651305443854  0.9687124284810412 1.0000   
         H         H         1.0       0.5965398497485351  0.7115286441452141  0.9960769573693825 1.0000   
         H         H         1.0       0.5819515923123476  0.6769593740121037  0.009456266618129261         1.0000   
         H         H         1.0       0.6158453416411835  0.7765028833464626  0.9691530803471768 1.0000   
         H         H         1.0       0.6493246078795714  0.7751461315786237  0.9392391163849824 1.0000   
         H         H         1.0       0.6332108988652559  0.707650691094109   0.9156244789630775 1.0000   
         H         H         1.0       0.5948676761685772  0.7109000325844778  0.939173511155226  1.0000   
         H         H         1.0       0.5518664347876805  0.7249557557941728  0.9261394542406848 1.0000   
         H         H         1.0       0.5407285785965791  0.7377653245226419  0.883314019549921  1.0000   
         H         H         1.0       0.5641103896766215  0.8069156444661464  0.904596176631718  1.0000   
         H         H         1.0       0.5794572434400025  0.7912809754251564  0.9477394513993423 1.0000   
         C         C         1.0       0.08536073313810254           0.5063097957698501 0.8088700434845603 1.0000   
         C         C         1.0       0.09072426438656565           0.4835079460315169 0.8086738249661993 1.0000   
         C         C         1.0       0.07469735755536558           0.46617186793276555          0.809624694952816  1.0000   
         C         C         1.0       0.05100978427306241           0.47133892387021414          0.8086687384087522 1.0000   
         C         C         1.0       0.04573037375381394           0.49476942567398674          0.8072932721644438 1.0000   
         C         C         1.0       0.062023515827365386          0.5115481268298475 0.8076982125488319 1.0000   
         H         H         1.0       0.10873894133691267           0.47930729817719786          0.8087637502516224 1.0000   
         H         H         1.0       0.07993116923390095           0.44803150440116274          0.81046348405948   1.0000   
         H         H         1.0       0.028235018389718203          0.5006728214359503 0.8080709186336041 1.0000   
         H         H         1.0       0.05573354145878319           0.5300814682621385 0.806169898571814  1.0000   
         C         C         1.0       0.005387622365919498          0.47164454754846735          0.8426485107807511 1.0000   
         C         C         1.0       0.007993503673163094          0.4592411937840663 0.8188391830493607 1.0000   
         C         C         1.0       0.9887266800700898  0.450858787821556   0.8063216985765765 1.0000   
         C         C         1.0       0.9672542538753353  0.4562479912163565  0.8161990846328538 1.0000   
         C         C         1.0       0.9652665199348769  0.470142975387851   0.8395212152094342 1.0000   
         C         C         1.0       0.9844468739590947  0.47848121191652293           0.852815806355546  1.0000   
         C         C         1.0       0.032116128648642654          0.45229199578960266          0.8056068170240598 1.0000   
         C         C         1.0       0.036490187860326755          0.4289900857584094 0.8202558367895735 1.0000   
         C         C         1.0       0.03086066826940992           0.4083108524667528 0.8072975647190067 1.0000   
         C         C         1.0       0.03612546293496499           0.387430785368361  0.8189507228132646 1.0000   
         C         C         1.0       0.05026065403385732           0.38749026889379684          0.8414754862376475 1.0000   
         C         C         1.0       0.05543234169724515           0.407866278639561  0.8538014198583863 1.0000   
         C         C         1.0       0.047840321743416896          0.42805323692457153          0.8438610980216241 1.0000   
         C         C         1.0       0.020962034930611217          0.4660395095906144 0.7583684475805127 1.0000   
         C         C         1.0       0.0198440314915187  0.46276118953547263           0.7307008956320222 1.0000   
         C         C         1.0       0.031475671764045414          0.4450023114380552 0.7169661418810463 1.0000   
         C         C         1.0       0.047291980106018525          0.43377747934400895          0.7316753467332482 1.0000   
         C         C         1.0       0.04813872344649272           0.4368515227898302 0.7595158294629522 1.0000   
         C         C         1.0       0.03321588188838875           0.45076482099672965          0.7733344380972409 1.0000   
         C         C         1.0       0.03077296901129789           0.44057643213443837          0.685277814754966  1.0000   
         C         C         1.0       0.9577881082230197  0.4573763097012119  0.6742490535137746 1.0000   
         C         C         1.0       0.9741332738786836  0.4702644185379415  0.6612277522881711 1.0000   
         C         C         1.0       0.9972914974159766  0.4655851154200491  0.6630360654193942 1.0000   
         C         C         1.0       0.004128017766935832          0.44590869648313614          0.6779879515235349 1.0000   
         C         C         1.0       0.9868173864472154  0.4325663483318535  0.6888889547895585 1.0000   
         C         C         1.0       0.9649020557144584  0.438411773131049   0.6875698179770882 1.0000   
         C         C         1.0       0.031115384727253614          0.4168055501421028 0.6710937495231053 1.0000   
         C         C         1.0       0.0309560271218845  0.39667812822346876           0.6858528793078156 1.0000   
         C         C         1.0       0.03517051412777761           0.3755174863894088 0.6736728636942314 1.0000   
         C         C         1.0       0.03833791183939983           0.37296599995798574          0.6463335618415266 1.0000   
         C         C         1.0       0.03671903666618981           0.3926844253717071 0.6307901339439717 1.0000   
         C         C         1.0       0.03223830876147926           0.4130929931088996 0.6427040442232544 1.0000   
         C         C         1.0       0.07341199576707214           0.444093263611634  0.6693617815212741 1.0000   
         C         C         1.0       0.09114302971490888           0.4572520950922971 0.658356158426855  1.0000   
         C         C         1.0       0.08907807494218224           0.47998116728063317          0.653183726529416  1.0000   
         C         C         1.0       0.06867912109805163           0.48922539492123956          0.6587934318753536 1.0000   
         C         C         1.0       0.051027389082194285          0.4776374248147124 0.6705872718197939 1.0000   
         C         C         1.0       0.05186484072149891           0.4543938132724682 0.6739978538567827 1.0000   
         H         H         1.0       0.01878668816695339           0.47737721742007805          0.8557904563763756 1.0000   
         H         H         1.0       0.9887568423990184  0.4402136378608948  0.7885434169295522 1.0000   
         H         H         1.0       0.954056524583302   0.45138836820257416           0.8033942026564378 1.0000   
         H         H         1.0       0.9832220552614371  0.4907194195455701  0.8677373309553278 1.0000   
         H         H         1.0       0.02095301532522642           0.4085156941839733 0.7892470375257655 1.0000   
         H         H         1.0       0.03236259513925144           0.3721150619014765 0.8079868984138376 1.0000   
         H         H         1.0       0.06618676919116247           0.40778421932106895          0.8709477956410215 1.0000   
         H         H         1.0       0.053569284609272405          0.44455563767283685          0.8525007383241879 1.0000   
         H         H         1.0       0.012301536269305968          0.48268790952188123          0.7657797888009528 1.0000   
         H         H         1.0       0.010545024568251682          0.474187164460824  0.7171901678760861 1.0000   
         H         H         1.0       0.0598177184086759  0.4197556074786201  0.7241509660623108 1.0000   
         H         H         1.0       0.05831689247596222           0.4244820622909356 0.7693677865505821 1.0000   
         H         H         1.0       0.9701684206867752  0.48486881746578064           0.6502097185803006 1.0000   
         H         H         1.0       0.008884964411215224          0.47465885390537554          0.6488711933083081 1.0000   
         H         H         1.0       0.9902429715454614  0.4177890775995112  0.7019963602622518 1.0000   
         H         H         1.0       0.9533533675784206  0.4290322738883757  0.700442107080457  1.0000   
         H         H         1.0       0.028306979021625267          0.3980194315959184 0.7077132339442128 1.0000   
         H         H         1.0       0.036780890184976656          0.36014960632107684          0.6859493148351544 1.0000   
         H         H         1.0       0.037308802834139065          0.39143905025943665          0.6084344760475955 1.0000   
         H         H         1.0       0.03008595253445545           0.42814452896621724          0.6305910452479657 1.0000   
         H         H         1.0       0.07632703380252048           0.4254326044712744 0.6700809319244369 1.0000   
         H         H         1.0       0.10636153206982367           0.44719123708125935          0.6537243410948658 1.0000   
         H         H         1.0       0.06329246690039987           0.5067112448784558 0.6545329594753395 1.0000   
         H         H         1.0       0.03591747903671782           0.487028737568328  0.67670726904655   1.0000   
         C         C         1.0       0.16233665869964592           0.49116599048200527          0.9602778720000537 1.0000   
         C         C         1.0       0.1575023402698369  0.46977332371706765           0.9699122361552107 1.0000   
         C         C         1.0       0.1363913791523955  0.46438689565913727           0.9812455122016995 1.0000   
         C         C         1.0       0.12011532137938784           0.4813296310258335 0.9854728703565508 1.0000   
         C         C         1.0       0.12523542966598025           0.5029530072455936 0.9772509626824835 1.0000   
         C         C         1.0       0.14662818040246078           0.5080841013322455 0.9646240166973918 1.0000   
         H         H         1.0       0.17224350318186535           0.4585590257851344 0.9680292951625147 1.0000   
         H         H         1.0       0.13376743042689063           0.44725950275922566          0.988248491635748  1.0000   
         H         H         1.0       0.1142902801194889  0.518037523786164   0.9817919459441834 1.0000   
         H         H         1.0       0.14960914559913063           0.5257139837090574 0.9560133043422476 1.0000   
         C         C         1.0       0.06697970548996679           0.4979671554539466 0.03025604402062121          1.0000   
         C         C         1.0       0.07859339216113428           0.49530711508997693          0.004998605325646777         1.0000   
         C         C         1.0       0.07198791540185291           0.509243542476921  0.9844545893493183 1.0000   
         C         C         1.0       0.05420030873381965           0.5249619378706486 0.9866827878076061 1.0000   
         C         C         1.0       0.04284638142207653           0.5259490935490073 0.011029302012832476         1.0000   
         C         C         1.0       0.049918579374209626          0.5132592416764179 0.03302789434027531          1.0000   
         C         C         1.0       0.09863358322975833           0.4764566979092744 0.0036183164966561154        1.0000   
         C         C         1.0       0.06992476533139416           0.4723346464968499 0.548035772179393  1.0000   
         C         C         1.0       0.1171098377080232  0.45720473417004137           0.048024424860877435         1.0000   
         C         C         1.0       0.10598048094755887           0.46406208704703017          0.5695148760639458 1.0000   
         C         C         1.0       0.10255585783378875           0.48119137725546435          0.5892385148230237 1.0000   
         C         C         1.0       0.0814951430330181  0.4925042863777731  0.5893045456541245 1.0000   
         C         C         1.0       0.06538586246793114           0.4872310343783074 0.5696460734664445 1.0000   
         C         C         1.0       0.07880237383651477           0.4508021106065196 0.9680689073657359 1.0000   
         C         C         1.0       0.06129086649200769           0.4372639591094635 0.9590933749906951 1.0000   
         C         C         1.0       0.04733272056756688           0.42534405619331966          0.976410658623357  1.0000   
         C         C         1.0       0.05008487609961132           0.4297073977969633 0.00318517128753415          1.0000   
         C         C         1.0       0.06773136001700664           0.44341056434330994          0.013235554192047028         1.0000   
         C         C         1.0       0.08192458806987336           0.45477493445866046          0.9957168182850238 1.0000   
         C         C         1.0       0.025599122390867368          0.41165023401205175          0.9633095065310906 1.0000   
         C         C         1.0       0.9915708797694133  0.4765346926831644  0.9466035126507242 1.0000   
         C         C         1.0       0.004073910843092499          0.4663796812926961 0.9267271900037153 1.0000   
         C         C         1.0       0.013048764612840102          0.4448586707791614 0.9312390047276493 1.0000   
         C         C         1.0       0.010915204570240533          0.4347410014825941 0.9562034856867422 1.0000   
         C         C         1.0       0.9979863832847873  0.4457122425627613  0.977141914211768  1.0000   
         C         C         1.0       0.988641562848247   0.4662691010979134  0.9720073462192635 1.0000   
         C         C         1.0       0.014035380953939969          0.39218177091930856          0.9804092103870367 1.0000   
         C         C         1.0       0.02802480354969794           0.3749391865964305 0.9923460316450089 1.0000   
         C         C         1.0       0.021714521804462095          0.35241674511880244          0.9928944114143577 1.0000   
         C         C         1.0       0.9995569679105311  0.34676443353237874           0.9842733778208422 1.0000   
         C         C         1.0       0.9843651479493454  0.36371906571695256           0.9779760423874685 1.0000   
         C         C         1.0       0.9911616359226761  0.3868468180809061  0.976988821601379  1.0000   
         C         C         1.0       0.015423476274634584          0.38987396567454347          0.9180941136374421 1.0000   
         C         C         1.0       0.0193925433788511  0.3737883600050083  0.898699924037498  1.0000   
         C         C         1.0       0.04050409971955515           0.3639358570287213 0.8965556532434944 1.0000   
         C         C         1.0       0.05732675926739571           0.37061742269355913          0.9129740204798812 1.0000   
         C         C         1.0       0.05339249922335644           0.38541688175184735          0.93498946510381   1.0000   
         C         C         1.0       0.03202076736510695           0.39547390047177433          0.9373627942736764 1.0000   
         H         H         1.0       0.036759764844147336          0.44669659971826287          0.5691738637748728 1.0000   
         H         H         1.0       0.08168020815238189           0.5094626135445841 0.9665966069487885 1.0000   
         H         H         1.0       0.0502215389661147  0.5354821190456661  0.9694331996655176 1.0000   
         H         H         1.0       0.9973557613070858  0.43464741426437453           0.5829441353030421 1.0000   
         H         H         1.0       0.11013131737649139           0.4407773701187969 0.04250429557283386          1.0000   
         H         H         1.0       0.12107254879233843           0.45334118834092346          0.5678648430354141 1.0000   
         H         H         1.0       0.07728980570800684           0.5047468417740238 0.6047458959127544 1.0000   
         H         H         1.0       0.047833734059420374          0.4952294651350582 0.5730949766208467 1.0000   
         H         H         1.0       0.08791849571003353           0.4603934610794378 0.9537381108019063 1.0000   
         H         H         1.0       0.058526804632014   0.43530013829832137           0.9385124543407886 1.0000   
         H         H         1.0       0.03661408223484175           0.4218848246870715 0.015220059965213029         1.0000   
         H         H         1.0       0.07082395915446793           0.44528589832293214          0.03372066157135012          1.0000   
         H         H         1.0       0.009659016876895299          0.47604991305395744          0.9089027789112513 1.0000   
         H         H         1.0       0.023788815735535263          0.437583237027183  0.9153501647551215 1.0000   
         H         H         1.0       0.9943065595417728  0.4377526111165272  0.997009239711654  1.0000   
         H         H         1.0       0.9794590766289502  0.47495947442619174           0.9892192519316741 1.0000   
         H         H         1.0       0.04594909997312646           0.37780602984543543          0.9966197999812286 1.0000   
         H         H         1.0       0.034227512960993245          0.3405223631335532 0.9982546603670397 1.0000   
         H         H         1.0       0.967318460280792   0.3608130263338671  0.9690131456003213 1.0000   
         H         H         1.0       0.9793710218233277  0.39867368308114093           0.9698941902775106 1.0000   
         H         H         1.0       2.7046301140920548e-06        0.3996437060571147 0.916721395675332  1.0000   
         H         H         1.0       0.005901323097889488          0.36882850953782975          0.8846500687826976 1.0000   
         H         H         1.0       0.07320420246990562           0.3624142588704348 0.9097414180104059 1.0000   
         H         H         1.0       0.06615927625371897           0.3908004651581806 0.9498177712600494 1.0000   
         C         C         1.0       0.883617890053549   0.6226617106203648  0.7387192335758834 1.0000   
         C         C         1.0       0.887096635584451   0.6220459938455032  0.7107495582169878 1.0000   
         C         C         1.0       0.9047688047936481  0.6087152526769148  0.7000490975850489 1.0000   
         C         C         1.0       0.91673473621773    0.5935883729637763  0.7159010655873879 1.0000   
         C         C         1.0       0.9112870988984553  0.5930430525956141  0.7432997304203245 1.0000   
         C         C         1.0       0.8972727247371203  0.6092477085662626  0.7551968402011645 1.0000   
         H         H         1.0       0.8778041477100238  0.6336955021151152  0.6979638828510883 1.0000   
         H         H         1.0       0.9103425564479543  0.6108542092609087  0.6797218189226744 1.0000   
         H         H         1.0       0.920713736666586   0.5815012605595943  0.756415518685092  1.0000   
         H         H         1.0       0.8937852845477593  0.6103169093189308  0.7772945312387783 1.0000   
         C         C         1.0       0.9533749280754098  0.5362669699828305  0.7082287674539228 1.0000   
         C         C         1.0       0.9352710982547507  0.5514197362706763  0.7096971774972335 1.0000   
         C         C         1.0       0.914073226709193   0.541529167233767   0.7093975146369337 1.0000   
         C         C         1.0       0.9106906710536513  0.5182026530389847  0.7077873809304989 1.0000   
         C         C         1.0       0.929380161600172   0.504603998702797   0.7042439829319475 1.0000   
         C         C         1.0       0.9509461204602357  0.5126210814411575  0.7059816588215345 1.0000   
         C         C         1.0       0.9379171735300843  0.5782021567211221  0.7034697100810043 1.0000   
         C         C         1.0       0.9593088327799153  0.5918451688275439  0.7176939179447163 1.0000   
         C         C         1.0       0.9720862589184694  0.5814114057987089  0.736782773538999  1.0000   
         C         C         1.0       0.9902955222818325  0.5932646705135203  0.7486914772700243 1.0000   
         C         C         1.0       0.9990503030150978  0.6131533017957574  0.7372193655956373 1.0000   
         C         C         1.0       0.9868386651221045  0.6226789338365396  0.7160127442649481 1.0000   
         C         C         1.0       0.9671110964284814  0.6127414863879803  0.7064269324897156 1.0000   
         C         C         1.0       0.9217224843574269  0.5719516746312376  0.6551541291092561 1.0000   
         C         C         1.0       0.9238887212800495  0.5659649069248734  0.6284580990316693 1.0000   
         C         C         1.0       0.9450526462139289  0.565302993103799   0.6159595939763689 1.0000   
         C         C         1.0       0.9645630425336212  0.5688174452174937  0.6311974781419784 1.0000   
         C         C         1.0       0.9629266514485011  0.5739608131925711  0.6590953686243711 1.0000   
         C         C         1.0       0.9408587587052439  0.5762756625016853  0.6720152085140763 1.0000   
         C         C         1.0       0.9562150710006128  0.6289076938679299  0.042862838008858706         1.0000   
         C         C         1.0       0.007155110380316243          0.5743912729187737 0.04230583152359513          1.0000   
         C         C         1.0       0.9841679241393329  0.5678416454215512  0.043996570362436094         1.0000   
         C         C         1.0       0.9677013231586972  0.5850026792783092  0.044915140081253746         1.0000   
         C         C         1.0       0.9739697756090813  0.6082361153893493  0.04344181250281243          1.0000   
         C         C         1.0       0.9968133126243865  0.6132682879295643  0.041498176305369006         1.0000   
         C         C         1.0       0.013669787107248865          0.5971520131803112 0.041275207567621264         1.0000   
         C         C         1.0       0.9620607801586418  0.6507041099176447  0.02465376927423857          1.0000   
         C         C         1.0       0.9539969831660159  0.6728131844107426  0.0302816989519481 1.0000   
         C         C         1.0       0.9553914781638785  0.6895710488460174  0.009889026357160269         1.0000   
         C         C         1.0       0.9685653433398409  0.6860598452002382  0.9863725860132581 1.0000   
         C         C         1.0       0.9793877989495857  0.6656881749999582  0.9829278242719385 1.0000   
         C         C         1.0       0.9758458161715867  0.6473738241981095  0.00020579412768384486       1.0000   
         C         C         1.0       0.9313664605529194  0.6059477127115521  0.00556202588150656          1.0000   
         C         C         1.0       0.91075262496148    0.6013552402876718  0.9919351521209624 1.0000   
         C         C         1.0       0.8916569659718796  0.613164792649999   0.999744630425332  1.0000   
         C         C         1.0       0.8923801914160648  0.6271195956712577  0.021841483770933534         1.0000   
         C         C         1.0       0.9120284421586793  0.631874196951553   0.03619732333992354          1.0000   
         C         C         1.0       0.9331962664661068  0.6213519105459684  0.02853260264296731          1.0000   
         H         H         1.0       0.9706590381591268  0.5433641344484367  0.7066287824046269 1.0000   
         H         H         1.0       0.8993280179550328  0.5529665599511239  0.7066826930561969 1.0000   
         H         H         1.0       0.8931919440851603  0.5113905741876749  0.7074931887272715 1.0000   
         H         H         1.0       0.9662364491751959  0.502611861187866   0.7053982868821854 1.0000   
         H         H         1.0       0.9659078892863038  0.5661786465701049  0.7469409701079224 1.0000   
         H         H         1.0       0.9961046045217498  0.5870090259815617  0.7672069394448084 1.0000   
         H         H         1.0       0.9919271276584822  0.6387476508795139  0.7080690970173005 1.0000   
         H         H         1.0       0.9585862428594175  0.6195136473018164  0.688496850882139  1.0000   
         H         H         1.0       0.9055843693045849  0.5705612449230424  0.6657138888062335 1.0000   
         H         H         1.0       0.9080298530305919  0.5621406810975603  0.6175994715456258 1.0000   
         H         H         1.0       0.9806049911997389  0.5692496550848479  0.6229072746170924 1.0000   
         H         H         1.0       0.9784830672728206  0.575320879393216   0.6698237479156424 1.0000   
         H         H         1.0       0.9779062337961844  0.55008955135202    0.047529169227710666         1.0000   
         H         H         1.0       0.9502848547313555  0.5806512570567244  0.0501436694684565 1.0000   
         H         H         1.0       0.002743675223584763          0.6315768988012072 0.03975739361688446          1.0000   
         H         H         1.0       0.03128875442281576           0.602000325949244  0.040832373617452955         1.0000   
         H         H         1.0       0.9451937281657389  0.6763422329584253  0.04809677764301945          1.0000   
         H         H         1.0       0.9476542720512905  0.7065233238274421  0.013278366515796503         1.0000   
         H         H         1.0       0.9905101883569241  0.6630810540631524  0.9652158717984913 1.0000   
         H         H         1.0       0.9819926729697027  0.6302711350250155  0.9930626278898017 1.0000   
         H         H         1.0       0.9467747709937102  0.6002207069517635  0.99326434559762   1.0000   
         H         H         1.0       0.90977847185845    0.5892623381488415  0.9757881730884901 1.0000   
         H         H         1.0       0.8857851615219672  0.6079022045690041  0.5616719369975385 1.0000   
         H         H         1.0       0.9140686471455615  0.5968841414646698  0.5891278190874099 1.0000   
         C         C         1.0       0.9507534507419044  0.6731214398191517  0.9286963980259765 1.0000   
         C         C         1.0       0.9593288460432403  0.671777685032513   0.9020641089589755 1.0000   
         C         C         1.0       0.9648221423219476  0.650327100157658   0.8917946643537652 1.0000   
         C         C         1.0       0.9591336593585361  0.6302026181801191  0.9043692112231189 1.0000   
         C         C         1.0       0.9470944096651348  0.6319883671070079  0.9287622019423484 1.0000   
         C         C         1.0       0.9431088454741474  0.6532174562266959  0.9405242767587193 1.0000   
         H         H         1.0       0.9622225267899978  0.689537509401253   0.893216453859752  1.0000   
         H         H         1.0       0.9725950185561161  0.6487673122265123  0.872475414795438  1.0000   
         H         H         1.0       0.9420596921653168  0.6174221693451482  0.9406078895425575 1.0000   
         H         H         1.0       0.9320384196320759  0.6523781702390448  0.958448937483736  1.0000   
         C         C         1.0       0.9797245782115274  0.583987798789883   0.9349508224558402 1.0000   
         C         C         1.0       0.9750969534666767  0.5839901069198856  0.9067562268966827 1.0000   
         C         C         1.0       0.9789243135280792  0.5627753103391022  0.8936027898731731 1.0000   
         C         C         1.0       0.9870230120489141  0.5439676753013228  0.9071938884971599 1.0000   
         C         C         1.0       0.989061636460644   0.5433432887892004  0.9342806772247894 1.0000   
         C         C         1.0       0.985485552431595   0.5647399027734413  0.9481389603519516 1.0000   
         C         C         1.0       0.9665272949020189  0.6062429262770523  0.8905392401681166 1.0000   
         C         C         1.0       0.9895405589299001  0.608381567420354   0.8719968934402709 1.0000   
         C         C         1.0       0.9909320168438607  0.6054505101671669  0.8442915062224934 1.0000   
         C         C         1.0       0.010183786502735659          0.609719797763509  0.8301639873990054 1.0000   
         C         C         1.0       0.0302970733652419  0.616171863784842   0.8432020561978143 1.0000   
         C         C         1.0       0.029629354587149326          0.621599482882956  0.8706544928743442 1.0000   
         C         C         1.0       0.009387771924729282          0.6163353681797505 0.8847288466009345 1.0000   
         C         C         1.0       0.9272667040279662  0.5854217175169127  0.8975487378463061 1.0000   
         C         C         1.0       0.9059138648745169  0.5791364355074208  0.8894321982931508 1.0000   
         C         C         1.0       0.8979256217155476  0.5836099287058535  0.862731977586401  1.0000   
         C         C         1.0       0.9123870872345357  0.5961882328007831  0.8464867215305998 1.0000   
         C         C         1.0       0.9346538121769085  0.6021667153150617  0.8545844194951534 1.0000   
         C         C         1.0       0.9421293628511177  0.5977630068822419  0.8811255055139701 1.0000   
         C         C         1.0       0.8751894812997344  0.5712689675196811  0.8512260843196161 1.0000   
         C         C         1.0       0.9100821579659504  0.5077144362201161  0.8291887454762492 1.0000   
         C         C         1.0       0.8983858099601615  0.5095416728498361  0.8544112125464488 1.0000   
         C         C         1.0       0.8860794929978326  0.529114490284405   0.8610673347592913 1.0000   
         C         C         1.0       0.8857595515320231  0.5472888045024303  0.8429665894924122 1.0000   
         C         C         1.0       0.8983369696138206  0.5447155716095243  0.8181731344081681 1.0000   
         C         C         1.0       0.9084939442526984  0.5246803232517772  0.8114713372543779 1.0000   
         C         C         1.0       0.8639772039189448  0.5855572245435795  0.8272369534447129 1.0000   
         C         C         1.0       0.8610292530559998  0.6097778791595019  0.8290118984341954 1.0000   
         C         C         1.0       0.8533110134625489  0.6212275499500794  0.8070553178229244 1.0000   
         C         C         1.0       0.8458493163707002  0.6095070590772426  0.7834147185123469 1.0000   
         C         C         1.0       0.8451464683494785  0.5861226086124184  0.7829784692222203 1.0000   
         C         C         1.0       0.8536331275537811  0.5737929492499824  0.8046174285647604 1.0000   
         C         C         1.0       0.8389948148481416  0.5541641319027167  0.8722525673090433 1.0000   
         C         C         1.0       0.8200508608310942  0.5548470008716182  0.889707150666845  1.0000   
         C         C         1.0       0.8182507046680437  0.5713296181062443  0.9094614506565736 1.0000   
         C         C         1.0       0.8346090773518196  0.5892434941833501  0.910464740660519  1.0000   
         C         C         1.0       0.8520074405814947  0.5899809234654251  0.8911012487572312 1.0000   
         C         C         1.0       0.8549395574648615  0.5721668426731874  0.8725052840828429 1.0000   
         H         H         1.0       0.9772237680539632  0.599071931099798   0.9472091029650264 1.0000   
         H         H         1.0       0.9761568869475789  0.5618065973542966  0.8718317264463885 1.0000   
         H         H         1.0       0.991066620938424   0.5280763755901526  0.8962571973893241 1.0000   
         H         H         1.0       0.987240177499571   0.5645489309267763  0.9697461506443794 1.0000   
         H         H         1.0       0.9779023303046999  0.5983103330786966  0.8321387722619976 1.0000   
         H         H         1.0       0.00979952345977364           0.609234385009245  0.8080574750120468 1.0000   
         H         H         1.0       0.04455710597904905           0.6280049733859434 0.8822232982932776 1.0000   
         H         H         1.0       0.0080344359588842  0.6191640569933884  0.9072838540392911 1.0000   
         H         H         1.0       0.9328473586233837  0.5837844555700668  0.918757349333282  1.0000   
         H         H         1.0       0.8958398784718602  0.5696207909352866  0.9038905073408423 1.0000   
         H         H         1.0       0.9081986213561865  0.5997827347987963  0.8261534713962435 1.0000   
         H         H         1.0       0.9447595027743526  0.6123489769050361  0.8402994336736482 1.0000   
         H         H         1.0       0.8999738530030023  0.4960941574623866  0.8696274917678315 1.0000   
         H         H         1.0       0.8797154904199941  0.530375774406151   0.8822240404403584 1.0000   
         H         H         1.0       0.8981786380900363  0.5590784388491209  0.8056310673687613 1.0000   
         H         H         1.0       0.9164378738641026  0.5214038333609677  0.7921435846986693 1.0000   
         H         H         1.0       0.8692214005140736  0.6207928997824853  0.8446119641433509 1.0000   
         H         H         1.0       0.8543645753219108  0.6397190627421007  0.8079200665310455 1.0000   
         H         H         1.0       0.8395593677988442  0.576116899165599   0.7659306673848733 1.0000   
         H         H         1.0       0.8518930685223168  0.5544542473269067  0.8031457486117827 1.0000   
         H         H         1.0       0.8383388087904358  0.5417190939908452  0.856198734909432  1.0000   
         H         H         1.0       0.8083117288121014  0.5403156608648516  0.8885565489343155 1.0000   
         H         H         1.0       0.8327533830436279  0.6031715836276126  0.9250211761661205 1.0000   
         H         H         1.0       0.8628663105111145  0.6049057105967437  0.8893307603749827 1.0000   
         C         C         1.0       0.11217710979688943           0.5669054619404337 0.817141134916063  1.0000   
         C         C         1.0       0.13352133489841686           0.5740068966055747 0.8240619443510895 1.0000   
         C         C         1.0       0.14524961192785715           0.5905289021660172 0.809861034016487  1.0000   
         C         C         1.0       0.1327582497082335  0.6040677414984648  0.793135104309796  1.0000   
         C         C         1.0       0.11076992754499755           0.5986727251327422 0.7875809715105165 1.0000   
         C         C         1.0       0.09983943924441205           0.5803992585013431 0.7995341465492145 1.0000   
         H         H         1.0       0.14437618515939957           0.5646924741650919 0.837970225406402  1.0000   
         H         H         1.0       0.1634759540594513  0.5910501402486037  0.8140856832732629 1.0000   
         H         H         1.0       0.10136425620932675           0.6077258505632254 0.7714839699405747 1.0000   
         H         H         1.0       0.08367437313056471           0.5755563558072584 0.793543211749431  1.0000   
         C         C         1.0       0.13423004135562935           0.6525535709959044 0.7389225554523401 1.0000   
         C         C         1.0       0.13097544142724304           0.6425434269997565 0.7639480686426073 1.0000   
         C         C         1.0       0.11750365443936137           0.6542380371152282 0.7832387852196173 1.0000   
         C         C         1.0       0.10543679589477532           0.6730869222774377 0.7754267107312294 1.0000   
         C         C         1.0       0.10941906478310284           0.6834428671666811 0.7498167022612554 1.0000   
         C         C         1.0       0.12374992466563453           0.6730261316591627 0.7324615416898312 1.0000   
         C         C         1.0       0.14642897355461063           0.6221320477571686 0.77362864965288   1.0000   
         C         C         1.0       0.1548336398538399  0.6042373660391642  0.750158795294813  1.0000   
         C         C         1.0       0.1747795056435719  0.5918021400184861  0.7546098740688998 1.0000   
         C         C         1.0       0.17874588090076338           0.5716994366397615 0.7406157895999682 1.0000   
         C         C         1.0       0.16447357847318178           0.5647663280589166 0.7204505757332974 1.0000   
         C         C         1.0       0.1447032123120114  0.5767797542633775  0.7152853348587409 1.0000   
         C         C         1.0       0.1411175584635887  0.596642637000003   0.7293852697253518 1.0000   
         C         C         1.0       0.16653582182430257           0.6415921062666887 0.8161960036500581 1.0000   
         C         C         1.0       0.18318762628884677           0.6558621900333929 0.8280038840919606 1.0000   
         C         C         1.0       0.19975301447973845           0.667395936070125  0.8118824185545184 1.0000   
         C         C         1.0       0.198338042189708   0.6628271198052271  0.7839280764976838 1.0000   
         C         C         1.0       0.18345764461583056           0.6469971013652369 0.7724267464836366 1.0000   
         C         C         1.0       0.1662078695423286  0.6373838112452531  0.787579116242499  1.0000   
         C         C         1.0       0.2144673138762721  0.686800252913577   0.8257906165833029 1.0000   
         C         C         1.0       0.17336443361367243           0.7492498192199454 0.8232006085789025 1.0000   
         C         C         1.0       0.17246350892599482           0.7348299429132505 0.8460174461623905 1.0000   
         C         C         1.0       0.18471702677771026           0.7149186426910402 0.8458750158447723 1.0000   
         C         C         1.0       0.19792085056463082           0.7088053171172792 0.8234655531485788 1.0000   
         C         C         1.0       0.1954523503112498  0.7219159178462351  0.800066414855174  1.0000   
         C         C         1.0       0.18545733229934783           0.7430833102572302 0.8009082415667845 1.0000   
         C         C         1.0       0.23869179362740398           0.6908857287839412 0.8108853793620886 1.0000   
         C         C         1.0       0.2504281716301469  0.6731539224404164  0.7977193719301254 1.0000   
         C         C         1.0       0.27420778412205477           0.675486257774162  0.7942305185572168 1.0000   
         C         C         1.0       0.2846428056865574  0.6955227028475032  0.8012258053396853 1.0000   
         C         C         1.0       0.272137092246121   0.7139753125563331  0.8105100410766599 1.0000   
         C         C         1.0       0.24895834114532642           0.7119695096141465 0.8131118442670091 1.0000   
         C         C         1.0       0.2311494829967345  0.6968828405978593  0.874461415045537  1.0000   
         C         C         1.0       0.24823299038027702           0.6922381195158486 0.8916151688866542 1.0000   
         C         C         1.0       0.260723130110545   0.6717222474563173  0.8890971562136379 1.0000   
         C         C         1.0       0.25294138599889143           0.6551872968790932 0.8726518871626489 1.0000   
         C         C         1.0       0.2345661499760747  0.6588065088437735  0.8564825030924808 1.0000   
         C         C         1.0       0.22460592845051663           0.6803817026940276 0.8549873473075696 1.0000   
         H         H         1.0       0.1450874600988299  0.642989524185871   0.7250089761364006 1.0000   
         H         H         1.0       0.11514695886488062           0.6484535304451642 0.8033840899959614 1.0000   
         H         H         1.0       0.09315774324990152           0.6806317109895322 0.7879758827077344 1.0000   
         H         H         1.0       0.12659358153543568           0.6798669899737964 0.711265843314005  1.0000   
         H         H         1.0       0.1850768632319399  0.5947970419884784  0.7731964999062624 1.0000   
         H         H         1.0       0.19519595259452302           0.5635158915748277 0.7451784669598119 1.0000   
         H         H         1.0       0.13291062648697202           0.5723918093437915 0.6996764401433476 1.0000   
         H         H         1.0       0.12634296266802242           0.6068280900670046 0.7238474958246681 1.0000   
         H         H         1.0       0.15311701223005758           0.6339591570482156 0.8288668778956716 1.0000   
         H         H         1.0       0.1852136131214284  0.6569820165455331  0.8498750517163554 1.0000   
         H         H         1.0       0.21015238029768984           0.6722529953869545 0.7727166994088852 1.0000   
         H         H         1.0       0.18409140371929772           0.6466937274053782 0.7513819037617416 1.0000   
         H         H         1.0       0.16217113696006988           0.740540868388446  0.8634516202546031 1.0000   
         H         H         1.0       0.18400096681090433           0.7026968324231411 0.862419608316791  1.0000   
         H         H         1.0       0.2042527742646706  0.7172143704212894  0.7809450341303078 1.0000   
         H         H         1.0       0.18538939323804435           0.7541840847668865 0.7831293346405143 1.0000   
         H         H         1.0       0.24355557337546443           0.6561142003944802 0.7939021508444634 1.0000   
         H         H         1.0       0.2839341224997327  0.6602299638507487  0.7891301334965279 1.0000   
         H         H         1.0       0.28059383902878693           0.7303068957625227 0.816808088575641  1.0000   
         H         H         1.0       0.24236666284163927           0.7275416136909773 0.8229996500662194 1.0000   
         H         H         1.0       0.2261696064843578  0.7146090221152259  0.871537241044967  1.0000   
         H         H         1.0       0.2554521958767791  0.7061118672543316  0.9042725046899697 1.0000   
         H         H         1.0       0.26117082932305563           0.6397801094398572 0.8685740949197125 1.0000   
         H         H         1.0       0.22935459645877734           0.6435440117141153 0.8448134299612474 1.0000   
         C         C         1.0       0.2069849438118853  0.5331117334584264  0.9735489230382555 1.0000   
         C         C         1.0       0.22846330020639674           0.5424135028106417 0.9689857569727929 1.0000   
         C         C         1.0       0.23150536624960896           0.5656818902105808 0.9707830312168015 1.0000   
         C         C         1.0       0.21402129345656407           0.5803830084021192 0.9759645195165089 1.0000   
         C         C         1.0       0.1926255983052408  0.5709153760258658  0.9812074796492016 1.0000   
         C         C         1.0       0.18968449653976668           0.5477062146936986 0.9808933137421596 1.0000   
         H         H         1.0       0.24058104050957618           0.5297118967232232 0.9609249907259796 1.0000   
         H         H         1.0       0.2488433488931234  0.5726813262067788  0.9690081271385714 1.0000   
         H         H         1.0       0.17659445595568088           0.5809436381486458 0.9846485070756749 1.0000   
         H         H         1.0       0.17311474808044844           0.5410987645448753 0.9895327588818879 1.0000   
         C         C         1.0       0.18282520682464173           0.6158021762930092 0.9445913348865012 1.0000   
         C         C         1.0       0.19791666585886555           0.6229185299559362 0.9643061009791327 1.0000   
         C         C         1.0       0.198985282611587   0.645950094426933   0.9688781771167072 1.0000   
         C         C         1.0       0.1848912570404941  0.6611808823189694  0.955802220094239  1.0000   
         C         C         1.0       0.17149660380360643           0.6534733388913999 0.9351820244129135 1.0000   
         C         C         1.0       0.16956084750476363           0.6305719964191382 0.9297366116389224 1.0000   
         C         C         1.0       0.2183709113066183  0.6077531601406417  0.9777290696006473 1.0000   
         C         C         1.0       0.24168720236500846           0.6164175710434117 0.9634608016802504 1.0000   
         C         C         1.0       0.2579257755281887  0.6326445065558887  0.9735161171237671 1.0000   
         C         C         1.0       0.2754466282743119  0.6389089288543397  0.957748222069297  1.0000   
         C         C         1.0       0.2766084558680115  0.6323586437937859  0.9309098016212403 1.0000   
         C         C         1.0       0.26118969366050165           0.6164545202117653 0.9210975677923422 1.0000   
         C         C         1.0       0.24302931885458667           0.6090248460125122 0.9369712886699308 1.0000   
         C         C         1.0       0.203482404487307   0.620235172412802   0.025638904168370447         1.0000   
         C         C         1.0       0.17535475291446143           0.6309481125949915 0.5722552500619956 1.0000   
         C         C         1.0       0.1882969272085926  0.6151175800218076  0.5852462596012806 1.0000   
         C         C         1.0       0.19260670028893134           0.5943229785183293 0.5703547137174599 1.0000   
         C         C         1.0       0.23972383564598895           0.6025418081601637 0.02354239725654006          1.0000   
         C         C         1.0       0.2207472375390265  0.6099918534705583  0.009756455075571102         1.0000   
         C         C         1.0       0.19728920928545454           0.6184789727610001 0.6171214052453619 1.0000   
         C         C         1.0       0.1687548885504137  0.6846992326850629  0.6444508894103294 1.0000   
         C         C         1.0       0.1603513255577234  0.664429607674641   0.6558242197607929 1.0000   
         C         C         1.0       0.17088212164298555           0.6436046547862632 0.6493658213751166 1.0000   
         C         C         1.0       0.1875109520466025  0.6419477636122927  0.6287500422918144 1.0000   
         C         C         1.0       0.19516769661458305           0.6623952480581319 0.6189595008636839 1.0000   
         C         C         1.0       0.18550457986010435           0.6838817798004996 0.6244001364772481 1.0000   
         C         C         1.0       0.22395379669714563           0.6210351291081654 0.622647669854387  1.0000   
         C         C         1.0       0.23901090718450962           0.61988443776832   0.6001773237398337 1.0000   
         C         C         1.0       0.26294228164130756           0.6235185735841171 0.6032024264658736 1.0000   
         C         C         1.0       0.27120024175430885           0.6289058442325324 0.6278823889770703 1.0000   
         C         C         1.0       0.25685122923374604           0.6320758607811697 0.6498347690282462 1.0000   
         C         C         1.0       0.23408035523183704           0.6282077568806224 0.6471534984619429 1.0000   
         C         C         1.0       0.2042003894091754  0.5813477625647114  0.6458141869283258 1.0000   
         C         C         1.0       0.19570815767857502           0.5613786245724522 0.6572718777726142 1.0000   
         C         C         1.0       0.1725648715820601  0.5571584554561533  0.6589808095551107 1.0000   
         C         C         1.0       0.15849183508577563           0.5706345775207055 0.6448337331118905 1.0000   
         C         C         1.0       0.16647973758372406           0.5905838501979975 0.633073760531916  1.0000   
         C         C         1.0       0.18905806588257962           0.596963121515897  0.6345472973646002 1.0000   
         H         H         1.0       0.18340602081967297           0.5993762392715055 0.9348929134088024 1.0000   
         H         H         1.0       0.21020543613493153           0.6525547076198018 0.9837863936942259 1.0000   
         H         H         1.0       0.1860619190866463  0.6789163751820392  0.9602137274268827 1.0000   
         H         H         1.0       0.15867371151731582           0.6235880947442632 0.9140272627068688 1.0000   
         H         H         1.0       0.2582893542763922  0.6389549480513292  0.9936192700504801 1.0000   
         H         H         1.0       0.2859624185521435  0.6530016835071141  0.9650716826007241 1.0000   
         H         H         1.0       0.2610100559192652  0.6119582769406162  0.8999191894275099 1.0000   
         H         H         1.0       0.22989364881468938           0.5985634859139021 0.9272706972486208 1.0000   
         H         H         1.0       0.18667157947790636           0.6231540260952195 0.017736961572222043         1.0000   
         H         H         1.0       0.16741026619685406           0.6449889698098745 0.5838530825596993 1.0000   
         H         H         1.0       0.20278338066354787           0.5809988779156972 0.58012287334458   1.0000   
         H         H         1.0       0.25212211783041666           0.5919647049862716 0.012656993459654764         1.0000   
         H         H         1.0       0.14971350969716385           0.6636850935875054 0.6736298388920159 1.0000   
         H         H         1.0       0.1682263654377654  0.6292886821626309  0.6612374558724381 1.0000   
         H         H         1.0       0.20886360972545379           0.6621356169409137 0.6016113485305381 1.0000   
         H         H         1.0       0.19240190674072502           0.7002136685033906 0.6173671303601448 1.0000   
         H         H         1.0       0.23314636773437847           0.6178053983146885 0.5799390426068696 1.0000   
         H         H         1.0       0.2735547359361604  0.6243556736578553  0.584776874764311  1.0000   
         H         H         1.0       0.26447171053631174           0.638053681238558  0.6695719301491001 1.0000   
         H         H         1.0       0.22512118370185677           0.628828559565823  0.6662917142834289 1.0000   
         H         H         1.0       0.22255166203372273           0.5828952240965084 0.646515178872825  1.0000   
         H         H         1.0       0.20604382717048061           0.5479789193995869 0.6661946222022231 1.0000   
         H         H         1.0       0.140424249478277   0.5668575043062499  0.6450061831791234 1.0000   
         H         H         1.0       0.15465669877378602           0.6011869610337706 0.6219820594809163 1.0000   
         C         C         1.0       0.9966123130268353  0.703539259330289   0.5851409424593219 1.0000   
         C         C         1.0       0.9901267090776424  0.6920578611399323  0.6082756466319749 1.0000   
         C         C         1.0       0.004046814664736109          0.6930038634282946 0.6307826399617056 1.0000   
         C         C         1.0       0.025840594141516515          0.7021336532537754 0.629875233610368  1.0000   
         C         C         1.0       0.03171128846610637           0.7127000281957114 0.6060488587721196 1.0000   
         C         C         1.0       0.016776713088721973          0.7147375433132421 0.5847756976726014 1.0000   
         H         H         1.0       0.9737693416014809  0.683820187097862   0.6102350663197631 1.0000   
         H         H         1.0       0.9970995701824363  0.6844716105775062  0.6483317571026898 1.0000   
         H         H         1.0       0.048203925782376526          0.7204321597645673 0.6043895020602911 1.0000   
         H         H         1.0       0.02409361311777047           0.7232145693959839 0.5670875745103932 1.0000   
         C         C         1.0       0.07788279198590106           0.6925457525702144 0.6303813323046709 1.0000   
         C         C         1.0       0.06840926375696949           0.7063749683643687 0.651319961453893  1.0000   
         C         C         1.0       0.08305919507837786           0.7193343116441921 0.6682442866501653 1.0000   
         C         C         1.0       0.10533857368962657           0.7214156757208601 0.6636781921530679 1.0000   
         C         C         1.0       0.1144143133295335  0.7103983671011245  0.6414268093476225 1.0000   
         C         C         1.0       0.1011402840420054  0.6952896858186081  0.6247888936431051 1.0000   
         C         C         1.0       0.04195587209322027           0.7052190510419898 0.656373251404587  1.0000   
         C         C         1.0       0.03954716115759615           0.6851083051021151 0.6770342824965415 1.0000   
         C         C         1.0       0.04229452934524791           0.6880319176653352 0.7049479655198743 1.0000   
         C         C         1.0       0.0438324495139959  0.6681063094347645  0.7207705111760757 1.0000   
         C         C         1.0       0.04162089671630431           0.64659268950567   0.7107134570242422 1.0000   
         C         C         1.0       0.03716564262941602           0.6441337947737836 0.6837499139341162 1.0000   
         C         C         1.0       0.037282096434028134          0.6631728827345319 0.6671785673358582 1.0000   
         C         C         1.0       0.04135121047862866           0.7498256544242785 0.6526373098595109 1.0000   
         C         C         1.0       0.042211023776152594          0.77141313328167   0.6655033505831766 1.0000   
         C         C         1.0       0.03076574711846214           0.7744561547929568 0.690215161195418  1.0000   
         C         C         1.0       0.01780106216250665           0.7555393977322832 0.6996888514985989 1.0000   
         C         C         1.0       0.01786834260295378           0.7344849934405909 0.6867954084554782 1.0000   
         C         C         1.0       0.03264223434930802           0.7305182893381608 0.6652039369410191 1.0000   
         C         C         1.0       0.040254870861611496          0.7959892008279816 0.7098324132948797 1.0000   
         C         C         1.0       0.08635668218901857           0.746295312115071  0.7445214322626359 1.0000   
         C         C         1.0       0.09389215196924093           0.7604198910160614 0.7239433347271709 1.0000   
         C         C         1.0       0.07958127130245861           0.7763786283028221 0.7141350048964157 1.0000   
         C         C         1.0       0.058300318913767454          0.7804532194754263 0.7261379557703032 1.0000   
         C         C         1.0       0.05214647712619269           0.7671389643490943 0.7491530063832429 1.0000   
         C         C         1.0       0.06632345452449599           0.7499330598091102 0.7575672755348553 1.0000   
         C         C         1.0       0.022509948518931955          0.8060931208988088 0.7308574423111386 1.0000   
         C         C         1.0       0.9989800677100316  0.8043517002774315  0.7266142935628681 1.0000   
         C         C         1.0       0.983740857831822   0.8083981628457554  0.747600706770696  1.0000   
         C         C         1.0       0.9917323508601625  0.8174493373079738  0.771931160004419  1.0000   
         C         C         1.0       0.015078327516204302          0.8201682243361861 0.7755954582519968 1.0000   
         C         C         1.0       0.029349179950189038          0.8167045136374258 0.7548048538138684 1.0000   
         C         C         1.0       0.07069774792063321           0.8287240258520269 0.7031192092359019 1.0000   
         C         C         1.0       0.08366867629580589           0.842243245831928  0.6860203521763777 1.0000   
         C         C         1.0       0.07608241610537349           0.8460823953410196 0.6598464021161375 1.0000   
         C         C         1.0       0.05411628310099742           0.838065900410343  0.6526255051490247 1.0000   
         C         C         1.0       0.04101181857960022           0.8253737992094283 0.671341806683613  1.0000   
         C         C         1.0       0.05116270526240464           0.8173905919966813 0.6947944233730082 1.0000   
         H         H         1.0       0.06864253799439561           0.6785105262454418 0.6189960164614807 1.0000   
         H         H         1.0       0.07569410562390758           0.7271483148147245 0.6864237856812055 1.0000   
         H         H         1.0       0.11599916650867087           0.7344369888908449 0.6744432109888094 1.0000   
         H         H         1.0       0.10787238540546229           0.6851041460038804 0.6081066569904104 1.0000   
         H         H         1.0       0.04435296100807973           0.7041911954078021 0.7137355222136055 1.0000   
         H         H         1.0       0.04819530763718216           0.669916056175181  0.7421709704652631 1.0000   
         H         H         1.0       0.0340253542639084  0.6269467305118013  0.6743354471706503 1.0000   
         H         H         1.0       0.03591880748595932           0.6618397541595276 0.6451738476773023 1.0000   
         H         H         1.0       0.05302831647410882           0.745898175040485  0.6359604155734704 1.0000   
         H         H         1.0       0.05275265822864755           0.7847813154167778 0.6572456635437495 1.0000   
         H         H         1.0       0.010045977421751616          0.7561906678967074 0.7189498718754901 1.0000   
         H         H         1.0       0.01030663884762073           0.7199604839442362 0.6978269589340568 1.0000   
         H         H         1.0       0.10931528310358084           0.7569008524271865 0.7140975966758702 1.0000   
         H         H         1.0       0.08559489767755103           0.78477291891892   0.6961856360545022 1.0000   
         H         H         1.0       0.03617024950900504           0.7695734026149668 0.760467331653933  1.0000   
         H         H         1.0       0.061967501600568395          0.7391838988246882 0.7754385618724132 1.0000   
         H         H         1.0       0.9928560842736778  0.7978060750680717  0.7062999502288452 1.0000   
         H         H         1.0       0.9665176196552471  0.8028362002320756  0.7438199717495707 1.0000   
         H         H         1.0       0.021324605688803677          0.8251898838635376 0.7949069337870468 1.0000   
         H         H         1.0       0.047410482954880706          0.8206590909249789 0.7580779912731743 1.0000   
         H         H         1.0       0.07581548686157569           0.8265068083446304 0.7248927652438371 1.0000   
         H         H         1.0       0.09939728818232563           0.8493621224717491 0.692893610592796  1.0000   
         H         H         1.0       0.04692779116579792           0.8425779396555308 0.6331490125433219 1.0000   
         H         H         1.0       0.022852507770148463          0.821567347197421  0.6660211740462639 1.0000   
         C         C         1.0       0.9906303804014553  0.7768481745579662  0.8182891473681122 1.0000   
         C         C         1.0       0.991783435901097   0.7527692737219521  0.8149912710884989 1.0000   
         C         C         1.0       0.009241192475420545          0.7414822529620209 0.8262535689026078 1.0000   
         C         C         1.0       0.027434286141491345          0.752191113019468  0.8380958957693875 1.0000   
         C         C         1.0       0.025719926222342423          0.7754147887382163 0.8417195328565908 1.0000   
         C         C         1.0       0.006946249811783377          0.7879423834484508 0.8327373535837514 1.0000   
         H         H         1.0       0.9778354006608034  0.7457074550590796  0.8044823067822828 1.0000   
         H         H         1.0       0.008565296763211494          0.7239564649982199 0.8214763676575474 1.0000   
         H         H         1.0       0.03742238286897325           0.7860451967519825 0.853405569744434  1.0000   
         H         H         1.0       0.008881767967181542          0.8066747100741218 0.836605012130415  1.0000   
         C         C         1.0       0.07742830493548654           0.7673555925561532 0.8212639058496574 1.0000   
         C         C         1.0       0.07467821361768774           0.7461105376658839 0.8339325787484617 1.0000   
         C         C         1.0       0.09536526458665429           0.7355328526247503 0.8408048295025318 1.0000   
         C         C         1.0       0.11567436625429629           0.7422200017040173 0.8314463926776408 1.0000   
         C         C         1.0       0.11653391551113909           0.7621096886068515 0.8166301727990669 1.0000   
         C         C         1.0       0.09841239863348136           0.7752017953618309 0.8134199439094807 1.0000   
         C         C         1.0       0.04989361595635778           0.7381677489403333 0.8464026148525357 1.0000   
         C         C         1.0       0.05123608122442265           0.7117374924924401 0.8369413350723531 1.0000   
         C         C         1.0       0.059052858201140736          0.6942565115172666 0.8534965853427912 1.0000   
         C         C         1.0       0.058788636298399144          0.6712646857348408 0.8450459929929318 1.0000   
         C         C         1.0       0.051977721762656914          0.6658772289079288 0.81894629978042   1.0000   
         C         C         1.0       0.045121360443768355          0.6823780073880272 0.8012361290736723 1.0000   
         C         C         1.0       0.044728082415907755          0.7050590250193483 0.8099539390811797 1.0000   
         C         C         1.0       0.062083171332831755          0.7588552441677362 0.8908611251009079 1.0000   
         C         C         1.0       0.06659135644546416           0.7582239985209923 0.9170773938911795 1.0000   
         C         C         1.0       0.058104803451630334          0.741208994897373  0.9331419619025242 1.0000   
         C         C         1.0       0.04072610989681591           0.7270572177382045 0.9222637618277938 1.0000   
         C         C         1.0       0.03629745989257826           0.727599540407884  0.8949752136449552 1.0000   
         C         C         1.0       0.05032294259231557           0.7407493748369988 0.8782865822926621 1.0000   
         C         C         1.0       0.0709279521433782  0.7357510958038695  0.9609442862370418 1.0000   
         C         C         1.0       0.12091460241541147           0.6866193046828466 0.9268020828503614 1.0000   
         C         C         1.0       0.1264373872178208  0.7103324028649355  0.9281453624552303 1.0000   
         C         C         1.0       0.11059491630015114           0.7256214992044234 0.9392647451790237 1.0000   
         C         C         1.0       0.0899790044457872  0.7175455608725714  0.950384227885293  1.0000   
         C         C         1.0       0.08454235152559662           0.6939524827738967 0.9475741091530328 1.0000   
         C         C         1.0       0.09998942498606313           0.6785298282825373 0.9355278646500753 1.0000   
         C         C         1.0       0.05424633933347527           0.7256204196066146 0.9842331384176589 1.0000   
         C         C         1.0       0.03144835447348293           0.7331859857900768 0.9879131627691594 1.0000   
         C         C         1.0       0.018360904182730398          0.7236296103030674 0.008400266738720186         1.0000   
         C         C         1.0       0.028337781562087994          0.709704916522043  0.027520833747369355         1.0000   
         C         C         1.0       0.05069808878859324           0.7040476261470487 0.02432311940030063          1.0000   
         C         C         1.0       0.06344290253963734           0.7129017813387779 0.0035451559208592442        1.0000   
         C         C         1.0       0.09901135532757023           0.7586646328749737 0.9910613384119917 1.0000   
         C         C         1.0       0.10819229628590352           0.7777185823425076 0.0030616250645680854        1.0000   
         C         C         1.0       0.09606058364708582           0.7974972235969053 0.004390417161343807         1.0000   
         C         C         1.0       0.07430749144953962           0.79899412569292   0.9926594418825532 1.0000   
         C         C         1.0       0.06623110701681018           0.7799611092615744 0.9779469726276758 1.0000   
         C         C         1.0       0.0786667921006775  0.7587112661541261  0.977901565337686  1.0000   
         H         H         1.0       0.0628945557400326  0.7780774656485091  0.8163806287799773 1.0000   
         H         H         1.0       0.0954016394905014  0.7192604262495864  0.8521290338721373 1.0000   
         H         H         1.0       0.1294720030312198  0.7300597240284532  0.8320223605461505 1.0000   
         H         H         1.0       0.09884578179696932           0.789627198353136  0.801163685183137  1.0000   
         H         H         1.0       0.06533559977235971           0.6973001502803876 0.8747562612762422 1.0000   
         H         H         1.0       0.06267190727518357           0.6590070471755491 0.8596323704700674 1.0000   
         H         H         1.0       0.0408123489936858  0.6764660466690408  0.7801998006168713 1.0000   
         H         H         1.0       0.03878440257425608           0.7173404364986118 0.7955007563165686 1.0000   
         H         H         1.0       0.0711612155905816  0.77148980092607    0.8785267228093849 1.0000   
         H         H         1.0       0.0782961881488263  0.7712802360274563  0.926062445364631  1.0000   
         H         H         1.0       0.03276952565289437           0.7143944443535973 0.9344566126866335 1.0000   
         H         H         1.0       0.023150755296015284          0.716551420438726  0.8863287836932021 1.0000   
         H         H         1.0       0.1427074780485804  0.7156661447772509  0.9202087131656559 1.0000   
         H         H         1.0       0.11321607924939335           0.744395770991925  0.9387719844353151 1.0000   
         H         H         1.0       0.06883440727207617           0.6854163222777624 0.9552459938725847 1.0000   
         H         H         1.0       0.0947421704068609  0.6611395551482258  0.9307589044015894 1.0000   
         H         H         1.0       0.02273605428118719           0.7466165537704852 0.9764365224462986 1.0000   
         H         H         1.0       0.9998403321922865  0.7251857759090107  0.006964500191189105         1.0000   
         H         H         1.0       0.058937184957121504          0.6917556645559845 0.03732652181115381          1.0000   
         H         H         1.0       0.08117390503344377           0.7096904088158614 0.0021713240463314687        1.0000   
         H         H         1.0       0.10830740468123272           0.7427105993049476 0.9934077358353591 1.0000   
         H         H         1.0       0.12540209546321313           0.7769156783998113 0.012120740669997021         1.0000   
         H         H         1.0       0.06362115902038404           0.8142793356018468 0.9925830125064318 1.0000   
         H         H         1.0       0.05080192462347075           0.7812237233445255 0.9683262983978701 1.0000   
         C         C         1.0       0.9813739465842323  0.7036980710139107  0.5593032979561245 1.0000   
         C         C         1.0       0.012074768427408955          0.696272862222132  0.04696824573964453          1.0000   
         H         H         1.0       0.012549638336850633          0.7261328837470411 0.07736860752683139          1.0000   
         H         H         1.0       0.9619794801217928  0.7067240658033052  0.5627367315890203 1.0000   
         H         H         1.0       0.9953082254814548  0.7013362082001393  0.04115274089331322          1.0000   
         H         H         1.0       0.01601838764786212           0.6773732724108018 0.044829918917436595         1.0000   
         C         C         1.0       0.9747829169883423  0.8153047245892995  0.7964553523456196 1.0000   
         C         C         1.0       0.9694063164684233  0.7899565224562871  0.8061594407192002 1.0000   
         H         H         1.0       0.9599564121253651  0.8252369039176625  0.7886415131534038 1.0000   
         H         H         1.0       0.9830153227134018  0.8250344432857636  0.8139420447131984 1.0000   
         H         H         1.0       0.9628964036781823  0.7796425852151019  0.7894740838887315 1.0000   
         H         H         1.0       0.9555066172903105  0.7895792990116843  0.8225631230889036 1.0000   
         C         C         1.0       0.16363086333678825           0.6709611580361216 0.9159311479776735 1.0000   
         C         C         1.0       0.1373916530667911  0.6715911281055972  0.9104723210573598 1.0000   
         H         H         1.0       0.1747025080907278  0.670067830321821   0.8968275739897291 1.0000   
         H         H         1.0       0.1694454556695507  0.6875228346601956  0.9228972148463688 1.0000   
         H         H         1.0       0.12935048910717065           0.6540563694495571 0.913058040812043  1.0000   
         H         H         1.0       0.13451536590414834           0.6765615613701618 0.8893511998378114 1.0000   
         C         C         1.0       0.139699142803924   0.7166905048257907  0.6345129023280895 1.0000   
         C         C         1.0       0.15865875416750178           0.7077351111268254 0.6528847881904599 1.0000   
         H         H         1.0       0.14149296159737568           0.7116585113672463 0.6128612832102451 1.0000   
         H         H         1.0       0.13942976265017845           0.7356130939073335 0.6366100551757929 1.0000   
         H         H         1.0       0.1723924267437637  0.7225197375603597  0.6525361855205513 1.0000   
         H         H         1.0       0.15245889339443539           0.7060993140351595 0.6752363121595134 1.0000   
         C         C         1.0       0.09602455569116852           0.7047651981456169 0.739519423441516  1.0000   
         C         C         1.0       0.10166338292725914           0.7264658638281394 0.7553289521285736 1.0000   
         H         H         1.0       0.10154167590653027           0.7083875107479036 0.7193646471044604 1.0000   
         H         H         1.0       0.07720716111192352           0.702544142323839  0.7396714817311895 1.0000   
         H         H         1.0       0.09825346251731629           0.7246694737086616 0.7772276017005558 1.0000   
         H         H         1.0       0.11904818048148966           0.7319329905037513 0.751582303677583  1.0000   
         C         C         1.0       0.28401926526972    0.6703712077871201  0.9050382509864644 1.0000   
         C         C         1.0       0.29096024540994975           0.645278256341201  0.9111722750022532 1.0000   
         H         H         1.0       0.299758715709295   0.6794142185996613  0.8974380923308584 1.0000   
         H         H         1.0       0.27999908515874933           0.6793121189109461 0.9246313086468197 1.0000   
         H         H         1.0       0.30859270947626954           0.6471865279962518 0.9199889770232814 1.0000   
         H         H         1.0       0.29348347094429733           0.6371245249925597 0.8912463838295721 1.0000   
         C         C         1.0       0.16854379565255415           0.5414764152650589 0.7069914775051229 1.0000   
         C         C         1.0       0.16389320845621635           0.5370694865988129 0.6767300053115081 1.0000   
         H         H         1.0       0.18592012216579737           0.5357627958001797 0.7121189759736657 1.0000   
         H         H         1.0       0.15840702847246468           0.5287295845357453 0.7184450553706828 1.0000   
         H         H         1.0       0.1737348149678219  0.5208617799721305  0.6689150318375866 1.0000   
         H         H         1.0       0.14532927952919658           0.5328945649288749 0.6731511092621381 1.0000   
         C         C         1.0       0.1397622397521884  0.7706506001515989  0.803484432160765  1.0000   
         C         C         1.0       0.15980181902416163           0.7719729057969748 0.8230548534991483 1.0000   
         H         H         1.0       0.13790970437597308           0.7882833965289355 0.7972271414532599 1.0000   
         H         H         1.0       0.14509245073576155           0.7611579189755492 0.7850771064228032 1.0000   
         H         H         1.0       0.15548198340357006           0.77691691746415   0.8444400220480834 1.0000   
         H         H         1.0       0.17232179992456367           0.7858435584777765 0.8168830365253535 1.0000   
         C         C         1.0       0.05274173432329987           0.6191537019093336 0.8261476906604568 1.0000   
         C         C         1.0       0.05488036170119659           0.6406887242193839 0.807487164463536  1.0000   
         H         H         1.0       0.06828038373967149           0.6192572831002157 0.8391032124152396 1.0000   
         H         H         1.0       0.05471078967806764           0.6043337017985841 0.8127501496981581 1.0000   
         H         H         1.0       0.045513535554661644          0.6387153754971132 0.7876514336601609 1.0000   
         H         H         1.0       0.07154420003792672           0.6391057863010374 0.7980931893375139 1.0000   
         C         C         1.0       0.022040589215408746          0.6243460960363668 0.7489504721870472 1.0000   
         C         C         1.0       0.04286885480418601           0.6263908530867585 0.7299796584178173 1.0000   
         H         H         1.0       0.01836023678205967           0.642390596320981  0.7556048527492834 1.0000   
         H         H         1.0       0.028443410274491487          0.6131225043933854 0.7655953779810482 1.0000   
         H         H         1.0       0.0428960041996167  0.6100385785049425  0.7166826746930722 1.0000   
         H         H         1.0       0.058462908824305604          0.6273872499193351 0.7416684924732675 1.0000   
         C         C         1.0       0.9496098173881107  0.6974670493840649  0.9427555031670406 1.0000   
         C         C         1.0       0.9679869052069779  0.703739401777593   0.9641337482284017 1.0000   
         H         H         1.0       0.9490941157796737  0.7122225445157118  0.9280570548232988 1.0000   
         H         H         1.0       0.9329022298673573  0.6985953483640148  0.952679692167581  1.0000   
         H         H         1.0       0.9655720289980545  0.7221211432089726  0.9713799892078617 1.0000   
         H         H         1.0       0.9839489790165964  0.702741722552033   0.9524063733729944 1.0000   
         C         C         1.0       0.8644126924154271  0.6377282329329285  0.7502018249294607 1.0000   
         C         C         1.0       0.8423104810879108  0.6243113658741086  0.758673873428877  1.0000   
         H         H         1.0       0.8704040142441264  0.6489281446354861  0.7677367056293876 1.0000   
         H         H         1.0       0.8615390153093295  0.651447999423559   0.7342004566640012 1.0000   
         H         H         1.0       0.8372806149332034  0.6130700910286959  0.7415018204656482 1.0000   
         H         H         1.0       0.8273369290771075  0.6359511534280634  0.762817366066249  1.0000   
         C         C         1.0       0.18572549313120726           0.495713599397929  0.9490026087278259 1.0000   
         C         C         1.0       0.20307192971098584           0.5058629993910827 0.9707599357029365 1.0000   
         H         H         1.0       0.1934355929905635  0.48081462429165445           0.9371723880291355 1.0000   
         H         H         1.0       0.18369125330271177           0.5104435677290204 0.9342179644559133 1.0000   
         H         H         1.0       0.21956898033115202           0.49715414698262245          0.9670669581100754 1.0000   
         H         H         1.0       0.20010276019569134           0.49772946243559707          0.9905346634394834 1.0000   
         C         C         1.0       0.02376818547468984           0.5434999643774484 0.014131248497857074         1.0000   
         C         C         1.0       0.023960329407511693          0.5558603576111532 0.042016889136817115         1.0000   
         H         H         1.0       0.9441947714603383  0.4522544630439783  0.5506260081063353 1.0000   
         H         H         1.0       0.007520230239739689          0.5340680866249369 0.015863859290495164         1.0000   
         H         H         1.0       0.040535347873151606          0.5634377341275497 0.046980400883197326         1.0000   
         H         H         1.0       0.01909851595321066           0.543904424634663  0.059873149057523944         1.0000   
         C         C         1.0       0.995067141019599   0.5211516434955108  0.9491132612533246 1.0000   
         C         C         1.0       0.9786135138024722  0.49993283685902384           0.9424558122130161 1.0000   
         H         H         1.0       0.9962980307713413  0.5241186857139837  0.9714659081093968 1.0000   
         H         H         1.0       0.013104554088317677          0.5165898415426593 0.9437686523173159 1.0000   
         H         H         1.0       0.9721689244548032  0.5001179287060113  0.9215402540181756 1.0000   
         H         H         1.0       0.9622935533628607  0.5010884649049976  0.9529467191097304 1.0000   
         C         C         1.0       0.10116944399828097           0.5451914536053133 0.8290832875702908 1.0000   
         C         C         1.0       0.10501933275976322           0.5241230529094092 0.8107369002180403 1.0000   
         H         H         1.0       0.10675531805195625           0.5414200363240297 0.8506679265146061 1.0000   
         H         H         1.0       0.08271150797691712           0.5484799793028663 0.8314930849391227 1.0000   
         H         H         1.0       0.12096427350572611           0.5153420837703924 0.8158068690299508 1.0000   
         H         H         1.0       0.10691322578618331           0.530288708463927  0.7896292683114174 1.0000   
         C         C         1.0       0.9417755054271345  0.4777392473828952  0.8479607082414851 1.0000   
         C         C         1.0       0.9248590916057181  0.48613098547493333           0.8253116611283761 1.0000   
         H         H         1.0       0.9327001924186333  0.46548961023794944           0.8607494584703749 1.0000   
         H         H         1.0       0.9445463878494486  0.49280631129878905           0.8611291237306212 1.0000   
         H         H         1.0       0.9371447407662101  0.4924112887799166  0.808886113659381  1.0000   
         H         H         1.0       0.9150424908293214  0.47078418669059596           0.8156838887656681 1.0000   
         C         C         1.0       0.06094448107825927           0.363778254977598  0.8497597102080188 1.0000   
         C         C         1.0       0.046166579486747183          0.35076246725102517          0.8694359941736942 1.0000   
         H         H         1.0       0.06527943238396139           0.3531085465283672 0.8314914994013541 1.0000   
         H         H         1.0       0.07813977726318326           0.36705019968650654          0.85760618442434   1.0000   
         H         H         1.0       0.055089913769035354          0.33367230140050486          0.874286033628294  1.0000   
         H         H         1.0       0.030041580388751262          0.3453986636554023 0.8593488376308998 1.0000   
         C         C         1.0       0.11009857806321008           0.4942831486352004 0.6409625822240613 1.0000   
         C         C         1.0       0.11995849592622353           0.48372898274435444          0.612393905215958  1.0000   
         H         H         1.0       0.10315468240286253           0.5120121376280007 0.6377671931360446 1.0000   
         H         H         1.0       0.12444578577479883           0.4962540025441512 0.6546308697089316 1.0000   
         H         H         1.0       0.134792703345875   0.49475546218711425           0.6051965043993375 1.0000   
         H         H         1.0       0.12730612138370445           0.4655047018665338 0.6135341701397807 1.0000   
         C         C         1.0       0.9280283338899629  0.47876753169215636           0.7048501808203912 1.0000   
         C         C         1.0       0.933467946754223   0.4661122200524799  0.6772538221698585 1.0000   
         H         H         1.0       0.9377031658176539  0.4726374048316918  0.7225524074749722 1.0000   
         H         H         1.0       0.9103147247271881  0.473995609306587   0.7114824393308211 1.0000   
         H         H         1.0       0.9275780066433066  0.47532526175198536           0.659146427020994  1.0000   
         H         H         1.0       0.9236759307560831  0.4498347535499938  0.6762928980557386 1.0000   
         C         C         1.0       0.6628413792577333  0.751728199449621   0.8827595272247101 1.0000   
         C         C         1.0       0.6644956962586505  0.7381149205658597  0.9097181806315662 1.0000   
         H         H         1.0       0.6797818365326672  0.75055729918322    0.873506793847947  1.0000   
         H         H         1.0       0.6618927937597795  0.7703392600428786  0.887740331343613  1.0000   
         H         H         1.0       0.6680341386555388  0.7201441480435935  0.9028447615671166 1.0000   
         H         H         1.0       0.6790871533434681  0.744249673488064   0.9216656009501087 1.0000   
         C         C         1.0       0.6069855652170556  0.8427603764104831  0.6372683195038884 1.0000   
         C         C         1.0       0.6193123191260238  0.8247815258457969  0.6195122759809594 1.0000   
         H         H         1.0       0.5932414092546118  0.851361504433644   0.6269334820524459 1.0000   
         H         H         1.0       0.6194086496307265  0.8563305064833493  0.6406902381022466 1.0000   
         H         H         1.0       0.6353028420080316  0.8207939667926433  0.6299822561565678 1.0000   
         H         H         1.0       0.6250976658440018  0.8331984587217002  0.5999685418835005 1.0000   
         C         C         1.0       0.3168213605385683  0.6947389300632373  0.8337578178543127 1.0000   
         C         C         1.0       0.30979064082352886           0.6963879815275801 0.8033727700106756 1.0000   
         H         H         1.0       0.3125312160417616  0.7107179031988391  0.8449516963423159 1.0000   
         H         H         1.0       0.3066576690094473  0.681391973649847   0.8430531546866047 1.0000   
         H         H         1.0       0.31605717770991837           0.6812220928486951 0.7904861458904878 1.0000   
         H         H         1.0       0.31603476861625757           0.7143130745948364 0.7961932397096336 1.0000   
         C         C         1.0       0.5134499505605754  0.6647340063557491  0.03584627783175809          1.0000   
         C         C         1.0       0.5350609911007629  0.6635614052393628  0.017764883547059407         1.0000   
         H         H         1.0       0.5169673793971169  0.6535909014571433  0.05380535469921499          1.0000   
         H         H         1.0       0.5130642817564777  0.6822470677523532  0.04467959870666838          1.0000   
         H         H         1.0       0.529903743963766   0.6523861706440824  9.376396370686102e-05        1.0000   
         H         H         1.0       0.5484843936238484  0.6542867625817849  0.02877398961411215          1.0000   
         C         C         1.0       0.49910762514266466           0.7127386274146733 0.8352280795915625 1.0000   
         C         C         1.0       0.47969481181133794           0.7285690804873886 0.8239809755785048 1.0000   
         H         H         1.0       0.4975068232552669  0.694638303456595   0.8310709755415124 1.0000   
         H         H         1.0       0.4996170783657857  0.7144115143793546  0.8582661084506635 1.0000   
         H         H         1.0       0.47979804535881815           0.728599396782744  0.800843858883518  1.0000   
         H         H         1.0       0.48280776305709733           0.7477026489656989 0.8291768762465566 1.0000   
         C         C         1.0       0.29752073016325487           0.6323729337990274 0.6307294916195435 1.0000   
         C         C         1.0       0.30485040402120944           0.6559140819480147 0.6208944605471366 1.0000   
         H         H         1.0       0.30278868341739595           0.6296938267946165 0.6526456092324285 1.0000   
         H         H         1.0       0.3058736197790823  0.620954905327869   0.6158611500150847 1.0000   
         H         H         1.0       0.2989853434556365  0.6702323294675658  0.6349551798156289 1.0000   
         H         H         1.0       0.2963306551069235  0.6583928781434943  0.601760469709233  1.0000   
         C         C         1.0       0.5127082127453638  0.7088678722580188  0.7487880838941913 1.0000   
         C         C         1.0       0.509397552303946   0.7261139011068164  0.7252404176459408 1.0000   
         H         H         1.0       0.5095328736716773  0.7167802192239998  0.768722876171183  1.0000   
         H         H         1.0       0.53119645547402    0.7049482910704165  0.7488771761427307 1.0000   
         H         H         1.0       0.4904186676988436  0.7295970167964791  0.7247894572341248 1.0000   
         H         H         1.0       0.5135727860231429  0.7170133276477635  0.7066233583085011 1.0000   
         C         C         1.0       0.3985925195723005  0.5560302386241853  0.05740178836827914          1.0000   
         C         C         1.0       0.38131720443739553           0.5668029120425151 0.03755996574876286          1.0000   
         H         H         1.0       0.4129792509428669  0.5483687949597622  0.045906955515820025         1.0000   
         H         H         1.0       0.3902932481701663  0.5402923527441464  0.06676098367126948          1.0000   
         H         H         1.0       0.36773564643388185           0.5757782855698937 0.04967910365771333          1.0000   
         H         H         1.0       0.373493758732585   0.5526994972804652  0.026980696710295904         1.0000   
         C         C         1.0       0.42565122116957554           0.5717164040886837 0.8028662837246693 1.0000   
         C         C         1.0       0.437721466351459   0.5751539665460802  0.8304126300567316 1.0000   
         H         H         1.0       0.40771614007850027           0.5757846562716485 0.8065466526349763 1.0000   
         H         H         1.0       0.4258255983321206  0.5527955775332967  0.7967205505388133 1.0000   
         H         H         1.0       0.4567739613298466  0.5733338488144616  0.8263070209044241 1.0000   
         H         H         1.0       0.43117810069605805           0.5622933490311681 0.8452518320106215 1.0000   
         C         C         1.0       0.4785123837604645  0.721705759713325   0.6084018797145773 1.0000   
         C         C         1.0       0.45995190212736364           0.7274841228574996 0.5874159602285951 1.0000   
         H         H         1.0       0.47833723447746135           0.7035906988177635 0.6140780267701289 1.0000   
         H         H         1.0       0.4736141463512998  0.7310222525914529  0.6280137509634671 1.0000   
         H         H         1.0       0.46286512421294274           0.7232287202334708 0.06243259069955753          1.0000   
         H         H         1.0       0.45255190176092097           0.7449506494117032 0.5909160775931119 1.0000   
         C         C         1.0       0.8546754935408891  0.5875825843407669  0.9939677420230646 1.0000   
         C         C         1.0       0.8689809090761885  0.6099369781361035  0.9845281342297614 1.0000   
         H         H         1.0       0.8540341648984914  0.5500098956783476  0.5143379019756583 1.0000   
         H         H         1.0       0.8446776914615849  0.5788833716463314  0.9766016276873335 1.0000   
         H         H         1.0       0.8722264816209233  0.6093860312732149  0.9621846618329915 1.0000   
         H         H         1.0       0.8587326560836345  0.6262161589895437  0.9887112110440885 1.0000   
         C         C         1.0       0.6167650103377021  0.6576252865450243  0.09186980610308693          1.0000   
         C         C         1.0       0.624669605960203   0.6816350956193775  0.10316767089556689          1.0000   
         H         H         1.0       0.6012870961241525  0.6583426131704188  0.07794841749200421          1.0000   
         H         H         1.0       0.6107863207143676  0.646992594646893   0.1080384458338044 1.0000   
         H         H         1.0       0.6176764363042307  0.6477904337493832  0.6258715925907269 1.0000   
         H         H         1.0       0.6291609954590517  0.6797288885768519  0.1239267087459559 1.0000   
         C         C         1.0       0.7857032868187731  0.5914061463326984  0.9398394284015926 1.0000   
         C         C         1.0       0.798418970641706   0.569029615618191   0.9303895772312837 1.0000   
         H         H         1.0       0.7974374724643245  0.6063085651147185  0.9448160533399057 1.0000   
         H         H         1.0       0.7775022928226061  0.5881727256039665  0.959648839184928  1.0000   
         H         H         1.0       0.803122511893734   0.5599210967076095  0.9503602986326932 1.0000   
         H         H         1.0       0.7857187641788124  0.5564570155181234  0.922104519164314  1.0000   
         C         C         1.0       0.6300565425281921  0.650540526890134   0.70978303293332   1.0000   
         C         C         1.0       0.6081067120420768  0.6484297107722237  0.7286114993217773 1.0000   
         H         H         1.0       0.6237359783354436  0.642891573939483   0.6890905551111381 1.0000   
         H         H         1.0       0.6338491138477097  0.6689132241823531  0.7081394057006445 1.0000   
         H         H         1.0       0.6082446681882889  0.6333020990222117  0.7410188738950408 1.0000   
         H         H         1.0       0.5923998069654047  0.6431440009366858  0.7164232369103994 1.0000   
         C         C         1.0       0.7143050435771664  0.7033054314654905  0.9294962809174286 1.0000   
         C         C         1.0       0.7319433471996409  0.6966439726726658  0.9513027389561319 1.0000   
         H         H         1.0       0.6978406376120845  0.7026443371788698  0.940653361813966  1.0000   
         H         H         1.0       0.7150895962300207  0.7206301502868084  0.9206923172686063 1.0000   
         H         H         1.0       0.7354611424762809  0.7127117087987546  0.9622260536020819 1.0000   
         H         H         1.0       0.7495753942687401  0.6899592645980402  0.9441918155663084 1.0000   
         C         C         1.0       0.8191970404550648  0.6375623722109666  0.680037755699392  1.0000   
         C         C         1.0       0.804500138429151   0.6510448436171989  0.7005220683933469 1.0000   
         H         H         1.0       0.8298143221104669  0.6259259725255608  0.6931394132132963 1.0000   
         H         H         1.0       0.8328231525318165  0.6496078435884005  0.673274482017201  1.0000   
         H         H         1.0       0.8157059516962067  0.6571298193581624  0.7174149955467944 1.0000   
         H         H         1.0       0.801690893824648   0.6664338448382242  0.6892390680209083 1.0000   
         C         C         1.0       0.4986580940119728  0.54005093273316    0.9185257961322024 1.0000   
         C         C         1.0       0.4933145448178062  0.5597435234067188  0.8980477114390979 1.0000   
         H         H         1.0       0.48267857660533764           0.5291695887353387 0.9217258958547517 1.0000   
         H         H         1.0       0.5018915095999534  0.5483937571861544  0.9381331211998507 1.0000   
         H         H         1.0       0.4845305177199549  0.5519443290305837  0.8796622264884403 1.0000   
         H         H         1.0       0.5107164073123696  0.5665291129194229  0.8923208973924829 1.0000   
         C         C         1.0       0.6392927438803101  0.543003147120939   0.8192413697636464 1.0000   
         C         C         1.0       0.6375795103454059  0.5623778001552472  0.8425601451030825 1.0000   
         H         H         1.0       0.6554674137673684  0.5351377446970249  0.8193856534131435 1.0000   
         H         H         1.0       0.6383885937122442  0.549057627172087   0.7985660395616714 1.0000   
         H         H         1.0       0.6225431693300496  0.5737696800664308  0.8420223179050463 1.0000   
         H         H         1.0       0.6358253585765434  0.5527680700015704  0.8627978105116302 1.0000   
         C         C         1.0       0.6861015411128143  0.5178813633055805  0.9776174133590345 1.0000   
         C         C         1.0       0.6726716584567896  0.5392732214126101  0.9705288647951779 1.0000   
         H         H         1.0       0.6971771539854185  0.5143216502175476  0.9582099334933569 1.0000   
         H         H         1.0       0.6971692327296157  0.5208640500080677  0.9967383538674811 1.0000   
         H         H         1.0       0.6539200542655041  0.5351368768643174  0.9704852421231562 1.0000   
         H         H         1.0       0.6751441853324683  0.5422464045538334  0.9481537577915944 1.0000   
         C         C         1.0       0.5180754673758399  0.5604858604253242  0.6443406291944164 1.0000   
         C         C         1.0       0.5338797408632823  0.547490864526708   0.663177003188781  1.0000   
         H         H         1.0       0.5269239158885825  0.5692810798868136  0.6273112702833659 1.0000   
         H         H         1.0       0.5071122944105051  0.5481633331696808  0.6355131905554632 1.0000   
         H         H         1.0       0.5252965594078555  0.5381428956634687  0.6798204330061846 1.0000   
         H         H         1.0       0.5450240103444524  0.5591701641000085  0.6762748048748727 1.0000   
         C         C         1.0       0.70007306230598    0.5184149937276544  0.0711761775898554 1.0000   
         C         C         1.0       0.7036457508756185  0.5171087577611929  0.6039235617225253 1.0000   
         H         H         1.0       0.7043948999014013  0.5079002192105003  0.05260993095820665          1.0000   
         H         H         1.0       0.7006417574773275  0.5365901868551437  0.06553505709643237          1.0000   
         H         H         1.0       0.6939973450893333  0.5179487988965324  0.6245729030669115 1.0000   
         H         H         1.0       0.7111755119774876  0.4987909111944358  0.6024682515150502 1.0000   
         C         C         1.0       0.7067612523843304  0.4908448554700025  0.7341708624002793 1.0000   
         C         C         1.0       0.6983805124372007  0.5106327944563174  0.7158686644913103 1.0000   
         H         H         1.0       0.7254022981407816  0.48498681291801915           0.7296728076689668 1.0000   
         H         H         1.0       0.7100465744440471  0.49597573704435294           0.7558652374577476 1.0000   
         H         H         1.0       0.6790177778111516  0.5102745759733202  0.7174778343515805 1.0000   
         H         H         1.0       0.703249737816091   0.506175588090542   0.6946872448156169 1.0000   
         C         C         1.0       0.5299429857953967  0.48188488961150155           0.05839755791306667          1.0000   
         C         C         1.0       0.5293114169226393  0.4895163321176414  0.02803745522923773          1.0000   
         H         H         1.0       0.5258308156470142  0.4642545911529075  0.05903087468160839          1.0000   
         H         H         1.0       0.5155154579130882  0.49153360275505437           0.0687045440473606 1.0000   
         H         H         1.0       0.5151790322686113  0.48200092547685636           0.015154798896434674         1.0000   
         H         H         1.0       0.5280248939914847  0.5080365686328455  0.02718210489090578          1.0000   
         C         C         1.0       0.540293258420114   0.4387668584869538  0.7570455374532266 1.0000   
         C         C         1.0       0.537503392337289   0.4259601518200962  0.7834034374451486 1.0000   
         H         H         1.0       0.535534413190146   0.45767648060980004           0.7576021386114262 1.0000   
         H         H         1.0       0.5277809316842859  0.43185361294309577           0.7440258071724808 1.0000   
         H         H         1.0       0.5193724311444616  0.4205178332107794  0.7864270407354477 1.0000   
         H         H         1.0       0.5465934854345309  0.4087987829038897  0.781825704304153  1.0000   
         C         C         1.0       0.8179758901360258  0.048677450942074034         0.8859224885818863 1.0000   
         C         C         1.0       0.8028815382691413  0.06586821011807152           0.869111592838926  1.0000   
         H         H         1.0       0.8217770517782274  0.03459612673427159           0.8718073213218609 1.0000   
         H         H         1.0       0.8041554427031437  0.04239951760845996           0.8984321677254932 1.0000   
         H         H         1.0       0.7942532241024481  0.07704093550692703           0.8853272635588322 1.0000   
         H         H         1.0       0.7891600653366377  0.05823140603910226           0.8571818259191631 1.0000   
         C         C         1.0       0.9065891137632062  0.007413802098451327         0.6821604927113846 1.0000   
         C         C         1.0       0.9279332996863726  0.9938605161634929  0.6725686269407939 1.0000   
         H         H         1.0       0.8965511254870301  0.012551390780561004         0.6647675620906113 1.0000   
         H         H         1.0       0.895063823322172   0.9938865198230875  0.6908818066305428 1.0000   
         H         H         1.0       0.9221194220252658  0.9771466033469477  0.6627357567714955 1.0000   
         H         H         1.0       0.9365082920847096  0.987228491621016   0.6907002309046049 1.0000   
         C         C         1.0       0.9943275077278926  0.3220932158249183  0.9748882530850934 1.0000   
         C         C         1.0       0.006314626133661294          0.31473469738542414          0.9479541739794606 1.0000   
         H         H         1.0       0.9987212539104638  0.30855600482734225           0.9898535763699373 1.0000   
         H         H         1.0       0.9761541973351265  0.31909406077509134           0.9739876983901243 1.0000   
         H         H         1.0       0.9956704376530303  0.3229604370323175  0.9316103567930184 1.0000   
         H         H         1.0       0.02438455019888419           0.32323601992439255          0.9469873739873205 1.0000   
         C         C         1.0       0.9066481478276274  0.18700652710247745           0.9361488092496034 1.0000   
         C         C         1.0       0.9261184091069982  0.19961232674367732           0.9540301885888492 1.0000   
         H         H         1.0       0.8893628872291456  0.1929306460737323  0.9441823348559616 1.0000   
         H         H         1.0       0.9065271123521481  0.1951256771330995  0.9160224567046271 1.0000   
         H         H         1.0       0.9247130545943838  0.19610255732548712           0.9761830048009236 1.0000   
         H         H         1.0       0.9203161739081632  0.2182212566327954  0.9543480753520042 1.0000   
         C         C         1.0       0.9469787637572774  0.18714460413838807           0.7930398568311446 1.0000   
         C         C         1.0       0.936455575406397   0.18644863337442807           0.8206932747373406 1.0000   
         H         H         1.0       0.9415544871734219  0.20314998535436984           0.7831126221047446 1.0000   
         H         H         1.0       0.9422179753107212  0.1723572880455777  0.7799196231272557 1.0000   
         H         H         1.0       0.936679728076203   0.20242240865321312           0.8329387456127588 1.0000   
         H         H         1.0       0.9449245389319645  0.17523844180122955           0.8361771485225893 1.0000   
         C         C         1.0       0.042833802548303046          0.3488715634634102 0.6325728892402522 1.0000   
         C         C         1.0       0.021445436955584984          0.3334427673055267 0.628700218839414  1.0000   
         H         H         1.0       0.053138296810814056          0.35050248717668875          0.6133368698692916 1.0000   
         H         H         1.0       0.05541834746095797           0.3404476194957846 0.6447762901784838 1.0000   
         H         H         1.0       0.015058249718919559          0.3379434299873144 0.608848083795712  1.0000   
         H         H         1.0       0.008168015422272523          0.33877948680724695          0.6433976737192375 1.0000   
         C         C         1.0       0.9796535652843311  0.18414310316380345           0.6862633198593648 1.0000   
         C         C         1.0       0.9934322802218977  0.16184675148080951           0.6925838777022201 1.0000   
         H         H         1.0       0.9685489010754078  0.19164424216531836           0.7028788518041306 1.0000   
         H         H         1.0       0.9655310420687344  0.17927381395222702           0.6711594423006867 1.0000   
         H         H         1.0       0.008798952610654442          0.16790475425381582          0.7048555701151864 1.0000   
         H         H         1.0       0.002211610721990498          0.15465574436443377          0.6737788722155953 1.0000   
         C         C         1.0       0.10938881405476356           0.18202932702835983          0.9612940842977498 1.0000   
         C         C         1.0       0.11731577571301831           0.1966933440213116 0.9854162455724396 1.0000   
         H         H         1.0       0.10771057054055569           0.16502589975068965          0.9690992508970712 1.0000   
         H         H         1.0       0.12318675465616999           0.18164394177401455          0.94694565922447   1.0000   
         H         H         1.0       0.13473687605569537           0.19245794514256764          0.9922178132523837 1.0000   
         H         H         1.0       0.1194422581921643  0.21502596493633452           0.979321445811421  1.0000   
         C         C         1.0       0.12261986279991907           0.24487517757377145          0.7307444776490605 1.0000   
         C         C         1.0       0.10955891537457856           0.25701283642374145          0.7552257821358159 1.0000   
         H         H         1.0       0.1300915551625185  0.2279446858579286  0.7367066421018342 1.0000   
         H         H         1.0       0.13669463518091196           0.255409519358051  0.7229717915195475 1.0000   
         H         H         1.0       0.1245648414557934  0.26252630108486874           0.7678620547051823 1.0000   
         H         H         1.0       0.10029147636457712           0.2727697537421719 0.7503508613944343 1.0000   
         C         C         1.0       0.014059496108801639          0.12291706280553977          0.9900478406766995 1.0000   
         C         C         1.0       0.07145161398234734           0.09357217965057679          0.6224496884230009 1.0000   
         H         H         1.0       0.023372030794352128          0.12815359176379706          0.9708187446141148 1.0000   
         H         H         1.0       0.01938023635030839           0.1051216614410431 0.993229831071216  1.0000   
         H         H         1.0       0.08045605366830078           0.0839323484254101 0.6386342946073215 1.0000   
         H         H         1.0       0.07250123993959123           0.11196090553301856          0.6302533052073865 1.0000   
         C         C         1.0       0.1179561730293953  0.835236277775211   0.9983658884652586 1.0000   
         C         C         1.0       0.10570939304874886           0.819716469036433  0.018754791723308628         1.0000   
         H         H         1.0       0.12800404967000814           0.8221921776426891 0.9855090882224865 1.0000   
         H         H         1.0       0.1323412639925448  0.8456536243964439  0.008605240411655668         1.0000   
         H         H         1.0       0.09374981027903194           0.8309072712197184 0.02844775622502227          1.0000   
         H         H         1.0       0.11775619358623422           0.8167930482695719 0.03579086378038454          1.0000   
         C         C         1.0       0.01074383350626018           0.04706900161369498          0.9060668889858894 1.0000   
         C         C         1.0       0.9869310685864978  0.047694269672218015         0.8916190018635112 1.0000   
         H         H         1.0       0.013036244581167145          0.0636883063570941 0.9157897931187    1.0000   
         H         H         1.0       0.024442638907965275          0.04585020723016742          0.8901631546984357 1.0000   
         H         H         1.0       0.9927375045630339  0.05592597680171707           0.8716525719930807 1.0000   
         H         H         1.0       0.981497933055473   0.029339007718646615         0.8869038512445859 1.0000   
         C         C         1.0       0.0771777179242848  0.8764078399494069  0.6187465002839058 1.0000   
         C         C         1.0       0.0891104162260231  0.861767924854544   0.6415044379071557 1.0000   
         H         H         1.0       0.08868549251366992           0.8784738049298805 0.6007246788252184 1.0000   
         H         H         1.0       0.0628639156053463  0.8658604689559805  0.6090272412479814 1.0000   
         H         H         1.0       0.09920076313609719           0.8735998162484292 0.654344623209575  1.0000   
         H         H         1.0       0.10232795244784987           0.8515460500509067 0.630828512557264  1.0000   
         C         C         1.0       0.03534059691142155           0.061268231131457185         0.8295579406748076 1.0000   
         C         C         1.0       0.027328555029831225          0.08165632374891515          0.8109261864079751 1.0000   
         H         H         1.0       0.024354503505143343          0.06002050865232489          0.8476092020005712 1.0000   
         H         H         1.0       0.0519463484626177  0.06536229539396321           0.8384431695167774 1.0000   
         H         H         1.0       0.03950337530454462           0.08268451340466376          0.7940843447189379 1.0000   
         H         H         1.0       0.02737284738897383           0.09788480621597934          0.8242635841572952 1.0000   
         C         C         1.0       0.02787086411298434           0.8619532138787113 0.84017413455208   1.0000   
         C         C         1.0       0.013631163977023242          0.8804356135354959 0.8241077144843546 1.0000   
         H         H         1.0       0.03881526887114495           0.8522211683363247 0.825018820564306  1.0000   
         H         H         1.0       0.016353343692462552          0.8479116320780831 0.8465591702541889 1.0000   
         H         H         1.0       0.005651348877916407          0.8723364541445486 0.8063117339831571 1.0000   
         H         H         1.0       0.002604911988144165          0.8866355031062401 0.8398037078373242 1.0000   
         C         C         1.0       0.9794270694298228  0.9817662185755974  0.5830071194091921 1.0000   
         C         C         1.0       0.9822365294651535  0.9624868422009815  0.5615029664241135 1.0000   
         H         H         1.0       0.9621016437238838  0.9790015786880222  0.5922537649530318 1.0000   
         H         H         1.0       0.9800191668885998  0.9992834429313779  0.573401761749523  1.0000   
         H         H         1.0       0.9682518766416414  0.9628727335661985  0.545003274450405  1.0000   
         H         H         1.0       0.9801612970236111  0.9458654409269657  0.570402615639128  1.0000   
         C         C         1.0       0.12040741697628958           0.10022872706548672          0.7643923981921333 1.0000   
         C         C         1.0       0.09387134218653717           0.10196866223045367          0.7702014606035498 1.0000   
         H         H         1.0       0.12699032545482147           0.11682878068636607          0.7561544511072662 1.0000   
         H         H         1.0       0.12380162857624727           0.08713684356122704          0.7477699646047621 1.0000   
         H         H         1.0       0.08752343704653268           0.08943772115667892          0.7838713117790939 1.0000   
         H         H         1.0       0.08643799374901512           0.09771980787715966          0.7494073858639453 1.0000   
         C         C         1.0       0.13024603676201518           0.008475929828955842         0.9241106376882311 1.0000   
         C         C         1.0       0.1380024953220837  0.9874282787964641  0.9047860518645505 1.0000   
         H         H         1.0       0.1339068602177641  0.006518354172812879         0.9460067280329564 1.0000   
         H         H         1.0       0.11123176497189914           0.008487073848870264         0.9258163566475136 1.0000   
         H         H         1.0       0.1345858958817581  0.9943253904681758  0.8857060464121357 1.0000   
         H         H         1.0       0.156553119518531   0.9855855072074251  0.9036079354855125 1.0000   
         C         C         1.0       0.15365413966404867           0.9930963270137234 0.7906700545928825 1.0000   
         C         C         1.0       0.16746851033895946           0.0015605085042036393        0.7645953745736607 1.0000   
         H         H         1.0       0.15333955434188093           0.009865079329121063         0.8021861079678313 1.0000   
         H         H         1.0       0.16496789095058795           0.9807003545617486 0.8017038707462812 1.0000   
         H         H         1.0       0.15917356577214503           0.016706219749012874         0.7558396732778164 1.0000   
         H         H         1.0       0.16645403159021813           0.9876588407752555 0.7491435051278449 1.0000   
         C         C         1.0       0.193851433291479   0.20597955974245322           0.6901589924485627 1.0000   
         C         C         1.0       0.16868226091035626           0.21558800932768105          0.6920347551069609 1.0000   
         H         H         1.0       0.2020257320678984  0.21348878523513276           0.7076811613405556 1.0000   
         H         H         1.0       0.20238211803568779           0.21348822666194486          0.6730376245468589 1.0000   
         H         H         1.0       0.16841734053258192           0.23433996003847288          0.6913946539484589 1.0000   
         H         H         1.0       0.15919730362537354           0.20965944865035194          0.7096228067808636 1.0000   
         C         C         1.0       0.13520710445565184           0.03779022594960435          0.7033270393846323 1.0000   
         C         C         1.0       0.12671091575592416           0.03167138048362639          0.6741616010070085 1.0000   
         H         H         1.0       0.14058490525450484           0.02199189133897561          0.7146706783020959 1.0000   
         H         H         1.0       0.12025996738140975           0.04375318543486828          0.715589995851233  1.0000   
         H         H         1.0       0.14179200205617104           0.023514964909524094         0.6622044894646066 1.0000   
         H         H         1.0       0.12349681610879262           0.04709009093622618          0.6629254803483422 1.0000   
         C         C         1.0       0.17398858912587817           0.1559570844949545 0.9590290700055165 1.0000   
         C         C         1.0       0.18935155718283295           0.15806794306553487          0.933740443498052  1.0000   
         H         H         1.0       0.1559861616845946  0.15317836851585645           0.9516158080358411 1.0000   
         H         H         1.0       0.17328131312965317           0.1729010473493381 0.9706883031536734 1.0000   
         H         H         1.0       0.207842884645839   0.1575450935251021  0.9400507093788597 1.0000   
         H         H         1.0       0.18675422758429489           0.17583431352735523          0.9245410453828355 1.0000   
         C         C         1.0       0.30704558042566854           0.10991382280420535          0.7451249547081357 1.0000   
         C         C         1.0       0.288594806319006   0.12864764016929528           0.7417449923506715 1.0000   
         H         H         1.0       0.3209414702105143  0.11749489650595613           0.7573143852753215 1.0000   
         H         H         1.0       0.31623773333873073           0.10549649134489478          0.7260285236508803 1.0000   
         H         H         1.0       0.29514315237228617           0.144847868646187  0.731102748339827  1.0000   
         H         H         1.0       0.2825896460798784  0.13474106691209445           0.761305293792711  1.0000   
         C         C         1.0       0.15470253838338388           0.9589032661204796 0.5920919692221976 1.0000   
         C         C         1.0       0.1592089708743691  0.9772725568578426  0.6153606487897942 1.0000   
         H         H         1.0       0.15157606451078987           0.9418882546566847 0.6021936763491414 1.0000   
         H         H         1.0       0.1706610366048801  0.9556039660219136  0.5809009562722335 1.0000   
         H         H         1.0       0.11227477179306565           0.007845037898444263         0.017144273135997645         1.0000   
         H         H         1.0       0.14373829951697206           0.9823583133635476 0.6255572385496885 1.0000   
         C         C         1.0       0.7622252203919183  0.11656741262389715           0.7233686838214173 1.0000   
         C         C         1.0       0.7780111853914264  0.1380734423715349  0.7292990960711013 1.0000   
         H         H         1.0       0.7498031363375806  0.1203357096897881  0.7067376553743285 1.0000   
         H         H         1.0       0.7715723052634353  0.10124150182008282           0.714435955473839  1.0000   
         H         H         1.0       0.7685938106583792  0.1522748217646299  0.7354286075447503 1.0000   
         H         H         1.0       0.7852646738784467  0.14247175664629033           0.7097034950026093 1.0000   
         C         C         1.0       0.8964724740289443  0.1223988384722837  0.6508160171196128 1.0000   
         C         C         1.0       0.8462488403885433  0.11187435313888783           0.1501329547814061 1.0000   
         H         H         1.0       0.8795980722773029  0.09903567423729727           0.1630684015486279 1.0000   
         H         H         1.0       0.885905586224638   0.11148116155851338           0.6627907564253245 1.0000   
         H         H         1.0       0.8516143885812245  0.13090230368484984           0.1463315555105269 1.0000   
         H         H         1.0       0.8413377991044879  0.1105644385168177  0.17194680919421668          1.0000   
         C         C         1.0       0.8195854202766903  0.03128348304540207           0.9865887438584284 1.0000   
         C         C         1.0       0.8010443391577464  0.021398609459391427         0.9665018565741675 1.0000   
         H         H         1.0       0.8302522259149199  0.04439406142929059           0.9769644772374815 1.0000   
         H         H         1.0       0.8304653452539813  0.01564739487573763           0.9921636865728974 1.0000   
         H         H         1.0       0.7956592555233081  0.005275432995637264         0.9731832746834779 1.0000   
         H         H         1.0       0.810703291327091   0.01630512555423058           0.9473344828541828 1.0000   
         C         C         1.0       0.7485488946131499  0.9973042355629587  0.7276477624615446 1.0000   
         C         C         1.0       0.7290006942117541  0.9885910051526295  0.7456175901070371 1.0000   
         H         H         1.0       0.7554085730144099  0.9828754113204216  0.7166944050721987 1.0000   
         H         H         1.0       0.7639081233306078  0.0029186928255751084        0.7385314588727365 1.0000   
         H         H         1.0       0.7144924586506096  0.9807327940302496  0.7350554694497098 1.0000   
         H         H         1.0       0.7351031996690257  0.9743019378982919  0.7577493689295013 1.0000   
         C         C         1.0       0.6242717293287907  0.3574302598307658  0.008543270080593413         1.0000   
         C         C         1.0       0.6472308047410117  0.3508891620646824  0.023587433690258175         1.0000   
         H         H         1.0       0.6210882732022635  0.3450878959426271  0.991404419712401  1.0000   
         H         H         1.0       0.6106617880071213  0.3529895370343016  0.022832552125952477         1.0000   
         H         H         1.0       0.6479373513573576  0.35825268242691244           0.04503450023214861          1.0000   
         H         H         1.0       0.6601914250909384  0.36147353857089537           0.013865845274155797         1.0000   
         C         C         1.0       0.6782080105372564  0.12096052448812566           0.05003044163566228          1.0000   
         C         C         1.0       0.7000677292962149  0.1347899337360337  0.04066998950639844          1.0000   
         H         H         1.0       0.6791546007193772  0.1155846162817696  0.07189384902452578          1.0000   
         H         H         1.0       0.6781910790753013  0.10578152913389086           0.036393178082521516         1.0000   
         H         H         1.0       0.6970542193018108  0.1523954771695286  0.0510707919399056 1.0000   
         H         H         1.0       0.718269039010199   0.16270973815729659           0.542573331688415  1.0000   
         C         C         1.0       0.7220130205656918  0.19508235100193005           0.9713682815362852 1.0000   
         C         C         1.0       0.7133840061507417  0.1711569673145092  0.9830492753486493 1.0000   
         H         H         1.0       0.727001525491693   0.1937529713947959  0.9506350833829166 1.0000   
         H         H         1.0       0.7374854340634676  0.20059752702574893           0.9815789008440976 1.0000   
         H         H         1.0       0.7181663037621426  0.16742631523250315           0.004743282565810247         1.0000   
         H         H         1.0       0.6936790087872434  0.16938746941071206           0.9835577896684926 1.0000   
         C         C         1.0       0.6500676862881799  0.3309785083099153  0.6947657835876666 1.0000   
         C         C         1.0       0.6249616707001001  0.3226620916966487  0.6981072993595837 1.0000   
         H         H         1.0       0.6583808416965545  0.3221911424990271  0.6756311127649607 1.0000   
         H         H         1.0       0.6592146826092921  0.32425223288492966           0.7118478680313695 1.0000   
         H         H         1.0       0.6145999036074649  0.3297404733807834  0.6806526374849956 1.0000   
         H         H         1.0       0.6176039560768293  0.33234103110869706           0.7160627991849047 1.0000   
         C         C         1.0       0.6231137946256821  0.12580669051727844           0.869373234970927  1.0000   
         C         C         1.0       0.6219866645386483  0.10592950421191134           0.8482810383106588 1.0000   
         H         H         1.0       0.6148120334765137  0.12092510730952016           0.8892062574378328 1.0000   
         H         H         1.0       0.641275569516157   0.13122149658246354           0.8735963599616008 1.0000   
         H         H         1.0       0.6128077116951959  0.11018111437870888           0.8305012965003871 1.0000   
         H         H         1.0       0.6112680368005879  0.0913073224554275  0.8567172554588747 1.0000   
         C         C         1.0       0.5664919163899057  0.2848427467682984  0.8866679691682154 1.0000   
         C         C         1.0       0.5890020325741615  0.2950456214380836  0.8971281403519775 1.0000   
         H         H         1.0       0.5570395798712328  0.29687812059552915           0.8728322273145535 1.0000   
         H         H         1.0       0.5549349874241486  0.28291778031092424           0.9044250602714423 1.0000   
         H         H         1.0       0.6009494121978596  0.2984339681480959  0.8781546305070825 1.0000   
         H         H         1.0       0.5847898502453774  0.312967853522049   0.9042889901111381 1.0000   
         C         C         1.0       0.5337880936969543  0.197776671095531   0.6337646849917518 1.0000   
         C         C         1.0       0.5371617300625632  0.20413540987496978           0.6031099554992353 1.0000   
         H         H         1.0       0.5284956289201828  0.18048225889603653           0.6368149081716475 1.0000   
         H         H         1.0       0.5168056259622005  0.2067864704351343  0.6397364584728678 1.0000   
         H         H         1.0       0.5228321518172689  0.1974662968020212  0.5910637650688467 1.0000   
         H         H         1.0       0.5346130483717568  0.22254272657489402           0.604667728292249  1.0000   
         C         C         1.0       0.6697819333884906  0.1441051536888145  0.6707838812158423 1.0000   
         C         C         1.0       0.6854252452510339  0.16445211435825172           0.6807995241777111 1.0000   
         H         H         1.0       0.6579507673376778  0.14886895103585904           0.6546004574607178 1.0000   
         H         H         1.0       0.6606774746953692  0.14120743678073627           0.6889825507277871 1.0000   
         H         H         1.0       0.6990067214595493  0.17016329565693952           0.664197367039953  1.0000   
         H         H         1.0       0.6937653557361554  0.15865058894678366           0.6994011720980434 1.0000   
         C         C         1.0       0.5303337685016931  0.798453975475072   0.8503242389196762 1.0000   
         C         C         1.0       0.5476096156798688  0.7806178709456223  0.8613515949065556 1.0000   
         H         H         1.0       0.5122031964685251  0.7931769320768561  0.8535733852619002 1.0000   
         H         H         1.0       0.5324872663106126  0.797631225981559   0.8273905036078562 1.0000   
         H         H         1.0       0.543589693208385   0.7635629673037008  0.8491527785616966 1.0000   
         H         H         1.0       0.5647785112852952  0.7858576017160926  0.8533959012431498 1.0000   
         C         C         1.0       0.6367362711149698  0.02353208925924588           0.9691137904562646 1.0000   
         C         C         1.0       0.6341463171640274  0.04984864922398802           0.9747850486454077 1.0000   
         H         H         1.0       0.6558145763721204  0.01960346632121812           0.9697082132606414 1.0000   
         H         H         1.0       0.630862753407589   0.015201284132293935         0.9880554907456652 1.0000   
         H         H         1.0       0.6331746491004089  0.05168111045616963           0.9968325982835843 1.0000   
         H         H         1.0       0.6195011177232789  0.05731449426518931           0.9652505598049996 1.0000   
         C         C         1.0       0.5308572527573949  0.9156409116461328  0.7853780856107385 1.0000   
         C         C         1.0       0.5377779120747104  0.8936822509681442  0.7998504873366552 1.0000   
         H         H         1.0       0.5146165958737992  0.9116260941315367  0.7749495106155568 1.0000   
         H         H         1.0       0.5268695762630619  0.9273971929617687  0.8020981431727069 1.0000   
         H         H         1.0       0.5242050189557484  0.8884643853815681  0.8126766703190305 1.0000   
         H         H         1.0       0.5518895149424615  0.8994564682377069  0.8132258848021842 1.0000   
         C         C         1.0       0.6383212128358092  0.025990216261932764         0.5509619667672956 1.0000   
         C         C         1.0       0.6628649014484012  0.017305102413574414         0.5552741538241576 1.0000   
         H         H         1.0       0.6374876554493619  0.0289574376687618  0.5284865921350271 1.0000   
         H         H         1.0       0.6359579689685254  0.04429593586185354           0.5572908809112194 1.0000   
         H         H         1.0       0.6727124787840034  0.017221442651084606         0.5350016974796309 1.0000   
         H         H         1.0       0.6635714837601449  0.9979478242566041  0.5598084947513525 1.0000   
         C         C         1.0       0.5823770617256744  0.834051360718967   0.006576831094781577         1.0000   
         C         C         1.0       0.5916475885770535  0.8574322227330332  0.5574526370066927 1.0000   
         H         H         1.0       0.5853541897530613  0.8154698905837833  0.003428677259337931         1.0000   
         H         H         1.0       0.5991827090463853  0.8423251538656218  0.008153361425926375         1.0000   
         H         H         1.0       0.577291807739064   0.8460494581484664  0.5614252992895271 1.0000   
         H         H         1.0       0.6034965051443947  0.8500356079573895  0.5729444858918419 1.0000   
         C         C         1.0       0.6715847595368376  0.9425369735856727  0.7946462665776791 1.0000   
         C         C         1.0       0.6741175367064993  0.9620288615490921  0.7735552904709178 1.0000   
         H         H         1.0       0.6698937128599218  0.9268770447856617  0.7828405215231677 1.0000   
         H         H         1.0       0.6870116229451989  0.9375012702608769  0.8050290083698038 1.0000   
         H         H         1.0       0.6894406805023721  0.9599907902943583  0.760664717326301  1.0000   
         H         H         1.0       0.6731386701971452  0.9783511512437997  0.7858022168585345 1.0000   
         C         C         1.0       0.30404697256532803           0.021124118822217097         0.5264152126817495 1.0000   
         C         C         1.0       0.2927594442432305  0.0432512303169279  0.5132336947436056 1.0000   
         H         H         1.0       0.2989751843749793  0.003976748731598478         0.5175347001903544 1.0000   
         H         H         1.0       0.29826624199471413           0.02196011183317048          0.5489487635020676 1.0000   
         H         H         1.0       0.2908715082628815  0.04157434189676579           0.4903255822906425 1.0000   
         H         H         1.0       0.3041791509558794  0.05969264949797881           0.515782410853808  1.0000   
         C         C         1.0       0.5022290509588727  0.12160592035231604           0.0017969693403268039        1.0000   
         C         C         1.0       0.5207075223170543  0.12946741219372981           0.9807419042636295 1.0000   
         H         H         1.0       0.49373564931614716           0.13536641873592867          0.012119784996056593         1.0000   
         H         H         1.0       0.5111459749748243  0.10918775619259911           0.017171093108056423         1.0000   
         H         H         1.0       0.5126381744432625  0.14141126637999013           0.9667345465370781 1.0000   
         H         H         1.0       0.5279993929634395  0.11433333104797237           0.9697379737195604 1.0000   
         C         C         1.0       0.4808056687125638  0.973321002315486   0.9024024475357665 1.0000   
         C         C         1.0       0.47924960480876977           0.9576153081992648 0.927203596746204  1.0000   
         H         H         1.0       0.4716213875687818  0.9641871225144308  0.8852140648671148 1.0000   
         H         H         1.0       0.49827192614667326           0.9741889068725959 0.8972677680923302 1.0000   
         H         H         1.0       0.48040917319601867           0.9685790191125866 0.9467039084665385 1.0000   
         H         H         1.0       0.46099396412487864           0.9496541096027902 0.9249849406410415 1.0000   
         C         C         1.0       0.48258873322898843           0.9891957529255402 0.5650377231225323 1.0000   
         C         C         1.0       0.4634202215367504  0.9739534486242343  0.5766152829336492 1.0000   
         H         H         1.0       0.48073012493670336           0.007495388989353424         0.5730445300396517 1.0000   
         H         H         1.0       0.4814062218898228  0.9895364492399453  0.5421845587822479 1.0000   
         H         H         1.0       0.4670207405046709  0.9705681135923386  0.5986525805115059 1.0000   
         H         H         1.0       0.4643218473958676  0.9557386947660313  0.5670570513678497 1.0000   
         C         C         1.0       0.32532975278929865           0.9706235362555272 0.8306201872134058 1.0000   
         C         C         1.0       0.344647408677306   0.9636759242658609  0.810300555392104  1.0000   
         H         H         1.0       0.33265278520122804           0.9712980428802424 0.8508497215036197 1.0000   
         H         H         1.0       0.31645252835285254           0.9541212286629392 0.8352820771279175 1.0000   
         H         H         1.0       0.35571939845787426           0.9494924042708119 0.8180865073631143 1.0000   
         H         H         1.0       0.3370327070534543  0.9565560816549946  0.7922956540537854 1.0000   
         C         C         1.0       0.46764552577688406           0.15066626105472117          0.7879438359898634 1.0000   
         C         C         1.0       0.48105932638549115           0.17046778193486686          0.775967582322235  1.0000   
         H         H         1.0       0.4523194879948473  0.15748498547792797           0.7987433965113814 1.0000   
         H         H         1.0       0.47631866330682815           0.1416749340954817 0.8051506624910304 1.0000   
         H         H         1.0       0.4700569641640788  0.18573480853796065           0.7741858100466859 1.0000   
         H         H         1.0       0.4855950044293087  0.16704024484955268           0.7536482770578709 1.0000   
         C         C         1.0       0.5353000417324884  0.047315014423889634         0.6350003285903207 1.0000   
         C         C         1.0       0.5582544269918288  0.04672423246720969           0.6496969110662674 1.0000   
         H         H         1.0       0.5316679322828171  0.029969862753140175         0.6267364451189896 1.0000   
         H         H         1.0       0.5386265423086697  0.056224556327750363         0.6158396997819415 1.0000   
         H         H         1.0       0.5606682747153063  0.06362707499212306           0.6604887886896795 1.0000   
         H         H         1.0       0.5719573771083071  0.04847744829018574           0.6333247161570876 1.0000   
         C         C         1.0       0.40251649289265107           0.12309733160970877          0.8284079542881638 1.0000   
         C         C         1.0       0.3950835771041914  0.12386739048116945           0.8594165079698434 1.0000   
         H         H         1.0       0.39078942494465385           0.13393347959905855          0.8161886400699161 1.0000   
         H         H         1.0       0.4178510832288627  0.13335317566775162           0.8254552955497902 1.0000   
         H         H         1.0       0.37583437953415577           0.123259382654486  0.8622509536611923 1.0000   
         H         H         1.0       0.39912264022085586           0.14013979056354842          0.8709462473145093 1.0000   
         C         C         1.0       0.40992339027220787           0.13408679874272508          0.6096480980708147 1.0000   
         C         C         1.0       0.4247511861150401  0.13102467885380883           0.5841175822396157 1.0000   
         H         H         1.0       0.39297209895460933           0.1272557890293225 0.6076286853737698 1.0000   
         H         H         1.0       0.4080706968622463  0.1524562892281884  0.613958747516924  1.0000   
         H         H         1.0       0.4434253534479343  0.13500326574262397           0.5890449766302184 1.0000   
         H         H         1.0       0.4188379243204706  0.14289227195409934           0.5677253238520914 1.0000   
         C         C         1.0       0.5166591063554161  0.010830575557982725         0.8354377004083484 1.0000   
         C         C         1.0       0.4996574180895523  0.9903811024814372  0.831183177469057  1.0000   
         H         H         1.0       0.5082921842046658  0.026236870485471853         0.8451044818619997 1.0000   
         H         H         1.0       0.520485389300684   0.016158595302043777         0.8139888388395262 1.0000   
         H         H         1.0       0.5064706510473524  0.9765765652234345  0.8177167472818937 1.0000   
         H         H         1.0       0.49693598877413087           0.9811845774330583 0.8506038997691471 1.0000

