data_0
_chemical_formula_structural 
                                        C6H4C38H24C6H4C38H24C6H4C38H24C6H4C38H24C6H4C38H24C6H4C38H24C6H4C38H24C6H4C38H24C6H4C38H24C6H4C38H24C6H4C38H24C6H4C38H24C6H4C38H24C6H4C38H24C6H4C38H24C6H4C38H24C6H4C38H24C6H4C38H24C6H4C38H24C6H4C38H24C6H4C38H24C6H4C38H24C6H4C38H24C6H4C38H24C6H4C38H24C6H4C38H24C6H4C38H24C6H4C38H24C6H4C38H24C6H4C38H24C6H4C38H24C6H4C38H24C2H4C2H4C2H4C2H4C2H4C2H4C2H4C2H4C2H4C2H4C2H4C2H4C2H4C2H4C2H4C2H4C2H4C2H4C2H4C2H4C2H4C2H4C2H4C2H4C2H4C2H4C2H4C2H4C2H4C2H4C2H4C2H4C2H4C2H4C2H4C2H4C2H4C2H4C2H4C2H4C2H4C2H4C2H4C2H4C2H4C2H4C2H4C2H4C2H4C2H4C2H4C2H4C2H4C2H4C2H4C2H4C2H4C2H4C2H4C2H4C2H4C2H4C2H4C2H4C2H4C2H4C2H4C2H4C2H4C2H4C2H4C2H4C2H4C2H4C2H4C2H4C2H4C2H4C2H4C2H4C2H4C2H4C2H4C2H4C2H4C2H4C2H4C2H4C2H4C2H4C2H4C2H4C2H4C2H4C2H4C2H4C6H4C38H24C6H4C38H24C6H4C38H24C6H4C38H24C6H4C38H24C6H4C38H24C6H4C38H24C6H4C38H24C6H4C38H24C6H4C38H24C6H4C38H24C6H4C38H24C6H4C38H24C6H4C38H24C6H4C38H24C6H4C38H24C6H4C38H24C6H4C38H24C6H4C38H24C6H4C38H24C6H4C38H24C6H4C38H24C6H4C38H24C6H4C38H24C6H4C38H24C6H4C38H24C6H4C38H24C6H4C38H24C6H4C38H24C6H4C38H24C6H4C38H24C6H4C38H24C2H4C2H4C2H4C2H4C2H4C2H4C2H4C2H4C2H4C2H4C2H4C2H4C2H4C2H4C2H4C2H4C2H4C2H4C2H4C2H4C2H4C2H4C2H4C2H4C2H4C2H4C2H4C2H4C2H4C2H4C2H4C2H4C2H4C2H4C2H4C2H4C2H4C2H4C2H4C2H4C2H4C2H4C2H4C2H4C2H4C2H4C2H4C2H4C2H4C2H4C2H4C2H4C2H4C2H4C2H4C2H4C2H4C2H4C2H4C2H4C2H4C2H4C2H4C2H4C2H4C2H4C2H4C2H4C2H4C2H4C2H4C2H4C2H4C2H4C2H4C2H4C2H4C2H4C2H4C2H4C2H4C2H4C2H4C2H4C2H4C2H4C2H4C2H4C2H4C2H4C2H4C2H4C2H4C2H4C2H4C2H4
_chemical_formula_sum                   'C3200 H2560'
_cell_length_a                          55.63607185770262
_cell_length_b                          55.29046927192965
_cell_length_c                          46.98247846054248
_cell_angle_alpha                       91.04412067547304
_cell_angle_beta                        89.7717852929827
_cell_angle_gamma                       90.53412526276773
_space_group_name_H-M_alt               'P 1'
_space_group_IT_number                  1
loop_
  _space_group_symop_operation_xyz
         'x, y, z' 
loop_
  _atom_site_type_symbol
  _atom_site_label
  _atom_site_symmetry_multiplicity
  _atom_site_fract_x
  _atom_site_fract_y
  _atom_site_fract_z
  _atom_site_occupancy
         C         C         1.0       0.4866135143092832  0.14254761724313275           0.29413782497664065          1.0000   
         C         C         1.0       0.4652030355436102  0.14346433818396415           0.2822578728096641 1.0000   
         C         C         1.0       0.4597283358568819  0.12665202227419747           0.2604213045255693 1.0000   
         C         C         1.0       0.47672871840706205           0.1116164432498777 0.24805120509028744          1.0000   
         C         C         1.0       0.49923310694759043           0.11340868614865685          0.2589095123412439 1.0000   
         C         C         1.0       0.5044789446971858  0.12821056557911964           0.2812411976480924 1.0000   
         H         H         1.0       0.4519707229485153  0.15486935574991528           0.292705805922834  1.0000   
         H         H         1.0       0.4419391063185417  0.12652627836097888           0.2516484195645702 1.0000   
         H         H         1.0       0.513181746826118   0.10334293913195175           0.25166411211838413          1.0000   
         H         H         1.0       0.5230762227616143  0.12704442816942624           0.28900031713624513          1.0000   
         C         C         1.0       0.5116314264803923  0.10817532274425865           0.1938409311727492 1.0000   
         C         C         1.0       0.4932600594133163  0.09200168238003825           0.198524631242805  1.0000   
         C         C         1.0       0.493804817636095   0.07037794760125404           0.18177912129792093          1.0000   
         C         C         1.0       0.513763409644261   0.06389393928486586           0.16843138118506173          1.0000   
         C         C         1.0       0.5335982035511817  0.07879715092280959           0.16940942255060815          1.0000   
         C         C         1.0       0.5327646313728304  0.10161963209471485           0.1818141646950203 1.0000   
         C         C         1.0       0.4711069869869213  0.09507398028809927           0.2193984040976707 1.0000   
         C         C         1.0       0.4524146315840338  0.11089558570197504           0.2007101430628693 1.0000   
         C         C         1.0       0.4330401320001701  0.1004293735408753  0.1867960934975636 1.0000   
         C         C         1.0       0.4170125772582244  0.11399562920782227           0.17287459128240723          1.0000   
         C         C         1.0       0.42192407059918363           0.13845113444100401          0.16854281741292162          1.0000   
         C         C         1.0       0.44180423377386746           0.14877127415926614          0.1804436693988821 1.0000   
         C         C         1.0       0.456263871794591   0.1355727982225411  0.19538960193714047          1.0000   
         C         C         1.0       0.4758652934178231  0.055138396866927   0.24581729240099506          1.0000   
         C         C         1.0       0.4722494390315266  0.04442841535791353           0.27184545671883287          1.0000   
         C         C         1.0       0.45169899199633534           0.04891324379864969          0.2868484190541913 1.0000   
         C         C         1.0       0.4334664835230616  0.058540709430598074         0.2699207882181533 1.0000   
         C         C         1.0       0.4371215960571638  0.07064437356903361           0.2447304849863287 1.0000   
         C         C         1.0       0.46077958309572303           0.07212639967328638          0.23468934401848815          1.0000   
         C         C         1.0       0.4493633766312506  0.04617516045971959           0.3211385423484446 1.0000   
         C         C         1.0       0.523212798538148   0.06801404857699489           0.34442498778853275          1.0000   
         C         C         1.0       0.505179957659084   0.08430998001031176           0.34597697284482565          1.0000   
         C         C         1.0       0.48214424970524566           0.07791763944600105          0.33972757100691997          1.0000   
         C         C         1.0       0.47564126372562054           0.05379103610001934          0.33298570085057594          1.0000   
         C         C         1.0       0.4936069472455661  0.03677219970371004           0.3345375718150336 1.0000   
         C         C         1.0       0.5160775460584394  0.043542649899178   0.3410928075163317 1.0000   
         C         C         1.0       0.44048246374882793           0.019471304512522547         0.3282608498750326 1.0000   
         C         C         1.0       0.42222715813626116           0.008707031633117923         0.3134479500091531 1.0000   
         C         C         1.0       0.4115841558761537  0.9866143696700557  0.3221299109319272 1.0000   
         C         C         1.0       0.4173478657339677  0.9772819854152248  0.3486246099376795 1.0000   
         C         C         1.0       0.4347033498006645  0.9894582903378596  0.36463394199372917          1.0000   
         C         C         1.0       0.4461222529184989  0.009721098007493989         0.35416939621223437          1.0000   
         C         C         1.0       0.41186534391227764           0.057242054868226415         0.3539133498214097 1.0000   
         C         C         1.0       0.39175255733176656           0.0709936475308028 0.35883688362112404          1.0000   
         C         C         1.0       0.39057039441770663           0.09373653471381746          0.3471906786636523 1.0000   
         C         C         1.0       0.40782741429755026           0.10174132222624165          0.3286501362669116 1.0000   
         C         C         1.0       0.42696111339597725           0.08665463479014891          0.3239048408910224 1.0000   
         C         C         1.0       0.4288202329150629  0.06365740972961058           0.3335598931980593 1.0000   
         H         H         1.0       0.5135850131514631  0.1236506909769814  0.2058480213365218 1.0000   
         H         H         1.0       0.47793022324788365           0.05843685595950454          0.17964177019299826          1.0000   
         H         H         1.0       0.5147898204407549  0.047185840187788264         0.15719527998474953          1.0000   
         H         H         1.0       0.547110479954765   0.11364189226349873           0.18273143839668185          1.0000   
         H         H         1.0       0.4320294662302632  0.0812229744786217  0.1883221496873533 1.0000   
         H         H         1.0       0.40147884801753614           0.10589316648866962          0.16273206545048935          1.0000   
         H         H         1.0       0.4486735059506873  0.16739376703213635           0.17567889864712352          1.0000   
         H         H         1.0       0.4726504348741815  0.14242120896338262           0.20369425207895098          1.0000   
         H         H         1.0       0.49394456827544164           0.05415038099866786          0.2388364861866838 1.0000   
         H         H         1.0       0.48848296199864194           0.03524962427677414          0.28039399765506573          1.0000   
         H         H         1.0       0.4169607268252129  0.06171022169005649           0.28080424862911235          1.0000   
         H         H         1.0       0.42309994641492726           0.08207938723352624          0.23945544017984108          1.0000   
         H         H         1.0       0.5082691041950623  0.10364403486279139           0.3487508214711807 1.0000   
         H         H         1.0       0.4706600773246946  0.09329498774800582           0.34214298636829277          1.0000   
         H         H         1.0       0.49072793230966133           0.01755520435273672          0.33154562485961697          1.0000   
         H         H         1.0       0.5308333778083796  0.030138223011312304         0.3400531019609439 1.0000   
         H         H         1.0       0.4149473603289155  0.016680865169209858         0.29539079990361305          1.0000   
         H         H         1.0       0.39778277572773    0.9765599983407195  0.3084929389337015 1.0000   
         H         H         1.0       0.4400102253596014  0.9861059861272615  0.3860907677264391 1.0000   
         H         H         1.0       0.45987339085974893           0.0187179046884125 0.3674546358143577 1.0000   
         H         H         1.0       0.41094584908984055           0.040162057274987  0.36410009925927106          1.0000   
         H         H         1.0       0.38094095232889746           0.06687826881176459          0.37842841577020825          1.0000   
         H         H         1.0       0.4096647725861968  0.11967932565487593           0.319103878288458  1.0000   
         H         H         1.0       0.4398537631362356  0.09409083377387915           0.3080784963767939 1.0000   
         C         C         1.0       0.5208788010235226  0.1447468498352762  0.46461404779200477          1.0000   
         C         C         1.0       0.4972039672687011  0.15215383671759025           0.4584641865441941 1.0000   
         C         C         1.0       0.47956711865510726           0.1361845272191957 0.45224297091633014          1.0000   
         C         C         1.0       0.4838463194966347  0.11179729148484824           0.44916626832130657          1.0000   
         C         C         1.0       0.5072635045800838  0.10437947711005735           0.4533364780122483 1.0000   
         C         C         1.0       0.5255603152335001  0.12004333286267346           0.4602774090388194 1.0000   
         H         H         1.0       0.4922213303977479  0.170010666101066   0.46176353282300864          1.0000   
         H         H         1.0       0.4623321634188555  0.14366357422602233           0.4492614725259894 1.0000   
         H         H         1.0       0.5119943563178359  0.08537689611817892           0.45364783357974325          1.0000   
         H         H         1.0       0.5436334256738073  0.1142654339459871  0.4661492607521849 1.0000   
         C         C         1.0       0.4855523065732741  0.061111119402391   0.4144833813569093 1.0000   
         C         C         1.0       0.46711887995361856           0.06721681137452218          0.4328101368810225 1.0000   
         C         C         1.0       0.4513285652484595  0.04909627767818714           0.4417638291184782 1.0000   
         C         C         1.0       0.4578004069096862  0.025363344380280983         0.43841149396331974          1.0000   
         C         C         1.0       0.478532733400515   0.020028649468195825         0.4241381280939536 1.0000   
         C         C         1.0       0.49233750164363443           0.03787546424224564          0.4114543679314319 1.0000   
         C         C         1.0       0.4620869474118732  0.0934388890482792  0.4469737333854642 1.0000   
         C         C         1.0       0.440363415386064   0.10211653366493385           0.4279884525055228 1.0000   
         C         C         1.0       0.4165829491784512  0.09631646248990972           0.43280309622613916          1.0000   
         C         C         1.0       0.3988506057943779  0.10588985423440431           0.41833860856267746          1.0000   
         C         C         1.0       0.4032163397903794  0.12260349772331591           0.3977831325496592 1.0000   
         C         C         1.0       0.4277288852765466  0.12703341356854078           0.390356227997996  1.0000   
         C         C         1.0       0.4456625967764612  0.11515278441223767           0.40365046287067424          1.0000   
         C         C         1.0       0.47063035131500114           0.07721753894934169          0.4968084451465775 1.0000   
         C         C         1.0       0.4681485021103412  0.07714689704588551           0.5258782284612272 1.0000   
         C         C         1.0       0.4492808831389158  0.08823981422092086           0.5387859777002889 1.0000   
         C         C         1.0       0.435589806793431   0.10347754475621643           0.5223025316576235 1.0000   
         C         C         1.0       0.43895177009060454           0.10536085303401913          0.4937052375743317 1.0000   
         C         C         1.0       0.45598048347842124           0.09175333712040155          0.48012262431441244          1.0000   
         C         C         1.0       0.42689215760280713           0.0782963879065619 0.04392248255828468          1.0000   
         C         C         1.0       0.46026858506503543           0.010741117656060784         0.06247767248586844          1.0000   
         C         C         1.0       0.4508043942084197  0.024674384981107744         0.0846585522989872 1.0000   
         C         C         1.0       0.4388577003566903  0.044577229248013994         0.07898852377009469          1.0000   
         C         C         1.0       0.43281790621737565           0.05116177929102439          0.05154876994035451          1.0000   
         C         C         1.0       0.4383043871093944  0.0347346561567623  0.02902549097443807          1.0000   
         C         C         1.0       0.45288917530256995           0.01543132304647532          0.034297966625028486         1.0000   
         C         C         1.0       0.40085989524279125           0.07320393525191493          0.028658995863222625         1.0000   
         C         C         1.0       0.397923803372691   0.07434898525631506           0.9995969750474147 1.0000   
         C         C         1.0       0.3750687710628558  0.07057240493762396           0.9880403880625139 1.0000   
         C         C         1.0       0.3564472413128566  0.06401455160865122           0.005566484416879015         1.0000   
         C         C         1.0       0.35949563611726026           0.06207490513814884          0.03383342127703748          1.0000   
         C         C         1.0       0.3811207522891846  0.06691426277703649           0.04556783223994443          1.0000   
         C         C         1.0       0.4078767005406273  0.11628806530770235           0.06450073698604797          1.0000   
         C         C         1.0       0.4050832773343897  0.1359449540594426  0.08070533599153396          1.0000   
         C         C         1.0       0.42224186981907197           0.13908472109611314          0.10238445439563353          1.0000   
         C         C         1.0       0.4392568505341938  0.12249724440464028           0.10734826227229897          1.0000   
         C         C         1.0       0.44154934086512865           0.10253214499729067          0.08971400896328145          1.0000   
         C         C         1.0       0.42479322398408625           0.09821159351398179          0.068575259786821  1.0000   
         H         H         1.0       0.49631239910183006           0.0752627247584252 0.404670128684806  1.0000   
         H         H         1.0       0.43601763916946934           0.05248766057185672          0.45558096844929274          1.0000   
         H         H         1.0       0.44603038863641953           0.01152393663791762          0.44854510765149597          1.0000   
         H         H         1.0       0.5076489945034849  0.03271489986076204           0.3995341809220208 1.0000   
         H         H         1.0       0.4100688044111049  0.08587907374330328           0.4511134322255834 1.0000   
         H         H         1.0       0.3803729145134289  0.10102146118343576           0.424559628079458  1.0000   
         H         H         1.0       0.432856313201918   0.13788428977062608           0.3727524042930771 1.0000   
         H         H         1.0       0.4631001318968103  0.1195868931544188  0.39802597305929427          1.0000   
         H         H         1.0       0.48570383911925524           0.06640088104416586          0.48781905042108314          1.0000   
         H         H         1.0       0.4723747699701739  0.07310690577141932           0.045391961458345564         1.0000   
         H         H         1.0       0.4213481705835988  0.11379600463849805           0.5320452206949354 1.0000   
         H         H         1.0       0.42895425017139976           0.11622953251002074          0.4807606098749273 1.0000   
         H         H         1.0       0.45739600575342476           0.021015651446901762         0.10629913849797595          1.0000   
         H         H         1.0       0.4319337049298116  0.05375581684084829           0.09837296840699732          1.0000   
         H         H         1.0       0.43270758584799457           0.036966908332899395         0.007295331418607054         1.0000   
         H         H         1.0       0.45672717813708813           0.00331246911383265          0.016792101788493108         1.0000   
         H         H         1.0       0.41018446037902234           0.06163466896219072          0.5507102218472519 1.0000   
         H         H         1.0       0.3676664816845473  0.06222891470850467           0.5577763362842063 1.0000   
         H         H         1.0       0.34426188779008066           0.054189942714952366         0.04557294504598208          1.0000   
         H         H         1.0       0.38383019239357813           0.06330499908555187          0.06809396018589053          1.0000   
         H         H         1.0       0.3963789924540643  0.11615289459004392           0.046417264450361755         1.0000   
         H         H         1.0       0.3878261140148014  0.14643689956272424           0.07922428974197504          1.0000   
         H         H         1.0       0.45134925980778445           0.12739819256989354          0.12377286900629565          1.0000   
         H         H         1.0       0.45655349760751585           0.09054159309583898          0.09439522540105923          1.0000   
         C         C         1.0       0.6135481873086172  0.8902776687936782  0.0769969748385626 1.0000   
         C         C         1.0       0.6305938358463752  0.9081625245138355  0.07315505143036871          1.0000   
         C         C         1.0       0.623347580174387   0.9317815628551119  0.08033933404902616          1.0000   
         C         C         1.0       0.6004850898358439  0.936486324528597   0.08941465807785996          1.0000   
         C         C         1.0       0.5843953563372067  0.9177342947745992  0.09271747039453763          1.0000   
         C         C         1.0       0.5921420945276439  0.894988121359647   0.0905133391644089 1.0000   
         H         H         1.0       0.6487517963586565  0.9054013862797832  0.06594426015241828          1.0000   
         H         H         1.0       0.63752806693193    0.9442767089553872  0.07904219362279852          1.0000   
         H         H         1.0       0.5663736713814117  0.9193623653053141  0.1017766388150788 1.0000   
         H         H         1.0       0.5798438871806876  0.8806464427551719  0.09143214816234241          1.0000   
         C         C         1.0       0.5579213390092409  0.9585827939895317  0.06420754863983391          1.0000   
         C         C         1.0       0.5659342135762843  0.9691261877878649  0.08913210220722934          1.0000   
         C         C         1.0       0.5505928708283071  0.9857500457847755  0.10469371509181284          1.0000   
         C         C         1.0       0.5282549740466674  0.9899300898501988  0.09594892761985363          1.0000   
         C         C         1.0       0.520734041372807   0.980537267292146   0.070925144251194  1.0000   
         C         C         1.0       0.5354591191364324  0.9642496860771577  0.054647694381078304         1.0000   
         C         C         1.0       0.5911436635113765  0.961842465613157   0.09953270433972727          1.0000   
         C         C         1.0       0.6057570231674813  0.9848185139869609  0.08848973161333548          1.0000   
         C         C         1.0       0.6094700374263186  0.005257455419285684         0.10569156779916293          1.0000   
         C         C         1.0       0.617952427717223   0.02627350992255484           0.09432264985394885          1.0000   
         C         C         1.0       0.6248768191225086  0.02724345726617594           0.06716082900749121          1.0000   
         C         C         1.0       0.621678872846249   0.007379274404270886         0.04855262186917653          1.0000   
         C         C         1.0       0.6140694952985052  0.986288409990931   0.0606245141354651 1.0000   
         C         C         1.0       0.5760491228245557  0.9550325487645287  0.1498839098261247 1.0000   
         C         C         1.0       0.5797078152162377  0.9566445195194577  0.17845358512648454          1.0000   
         C         C         1.0       0.6025634875230558  0.961814950093699   0.19088089819590384          1.0000   
         C         C         1.0       0.6210013870126774  0.9638603070368266  0.17270540750680635          1.0000   
         C         C         1.0       0.6183320097618737  0.9615664703962388  0.14492750938214807          1.0000   
         C         C         1.0       0.5949386860579412  0.9596323434008337  0.1317606212659844 1.0000   
         C         C         1.0       0.6040505238770632  0.9736052876629279  0.220672258960755  1.0000   
         C         C         1.0       0.5824763725171448  0.04387521375492698           0.18981966464475988          1.0000   
         C         C         1.0       0.566293698865756   0.027479550529251107         0.19738554243668396          1.0000   
         C         C         1.0       0.573617702972315   0.006686828777807907         0.21042639490929274          1.0000   
         C         C         1.0       0.5963812964208902  0.0014266041159638476        0.21436510565745767          1.0000   
         C         C         1.0       0.6143126856562346  0.01822039128219677           0.20674643939576035          1.0000   
         C         C         1.0       0.6068493175780324  0.039682436989836534         0.19575710230080037          1.0000   
         C         C         1.0       0.6292150281821367  0.9694755862307819  0.2365729103445129 1.0000   
         C         C         1.0       0.6412789821633152  0.9479452983065287  0.2323238982638876 1.0000   
         C         C         1.0       0.6582655691154055  0.940721872821695   0.2521356828873889 1.0000   
         C         C         1.0       0.6627191054428769  0.9544995131723752  0.2762369754756377 1.0000   
         C         C         1.0       0.6526312219860915  0.9773574844751896  0.27872641805752857          1.0000   
         C         C         1.0       0.6370894704044548  0.9849345116160434  0.25781415237995325          1.0000   
         C         C         1.0       0.5793311978161488  0.9752415334277742  0.2678300336118032 1.0000   
         C         C         1.0       0.5676314372555656  0.9636736859126929  0.2900159810520732 1.0000   
         C         C         1.0       0.5612972398503911  0.940329852798533   0.28763932051264146          1.0000   
         C         C         1.0       0.567206400330002   0.9267792259661098  0.2639362544644705 1.0000   
         C         C         1.0       0.5804227315185178  0.9372768715670924  0.24343119944000655          1.0000   
         C         C         1.0       0.5868318557104664  0.9620490462909459  0.2445278215105284 1.0000   
         H         H         1.0       0.5674890499780963  0.9461712871932917  0.05083988211640155          1.0000   
         H         H         1.0       0.5581428866399664  0.995986550470914   0.12233206798301376          1.0000   
         H         H         1.0       0.5172925702006329  0.002510661399603098         0.10719941215058551          1.0000   
         H         H         1.0       0.5282627764576757  0.9584165252004129  0.03215644159210451          1.0000   
         H         H         1.0       0.6017672692516757  0.006493666427922484         0.12650869620674432          1.0000   
         H         H         1.0       0.6173462556947267  0.04201843291138263           0.10803410815581663          1.0000   
         H         H         1.0       0.6290226661795517  0.007539958053931484         0.027578181851246608         1.0000   
         H         H         1.0       0.6110640586541044  0.9700237873639275  0.048207258749471286         1.0000   
         H         H         1.0       0.557941285961214   0.9532615490231713  0.1413791577624008 1.0000   
         H         H         1.0       0.5652360611643017  0.9530528200058742  0.1926565184416009 1.0000   
         H         H         1.0       0.6380647107200483  0.9689040677783253  0.18070182855647465          1.0000   
         H         H         1.0       0.6346399339270599  0.9594925984630069  0.12923591865794423          1.0000   
         H         H         1.0       0.5474130791660972  0.029439102601790168         0.19131672120520996          1.0000   
         H         H         1.0       0.5620825396510187  0.9919569085515805  0.21524951248528432          1.0000   
         H         H         1.0       0.6332222728491286  0.0130141813135638  0.2047943689252699 1.0000   
         H         H         1.0       0.619163471035544   0.05387567302999208           0.18961817297327732          1.0000   
         H         H         1.0       0.6332124214884398  0.9351573103899716  0.21670423588581852          1.0000   
         H         H         1.0       0.6640635761370172  0.9224148222076077  0.24878098411225055          1.0000   
         H         H         1.0       0.6563171649150059  0.9880705085022968  0.2969251691034091 1.0000   
         H         H         1.0       0.6292382959237958  0.003371833773592847         0.25958284873280074          1.0000   
         H         H         1.0       0.5867489298239077  0.9938401480308362  0.26931277137610027          1.0000   
         H         H         1.0       0.5627979356313796  0.9750767093584253  0.30720397414042805          1.0000   
         H         H         1.0       0.5607900352861969  0.9084426395770038  0.26144478415594313          1.0000   
         H         H         1.0       0.5843091481357124  0.926245161503914   0.22555626218227967          1.0000   
         C         C         1.0       0.6459815300894216  0.9439114965228949  0.3416171085744062 1.0000   
         C         C         1.0       0.6545970717696696  0.9483870103727012  0.36868767237987576          1.0000   
         C         C         1.0       0.6418633835606095  0.9613908911144347  0.3891146489304894 1.0000   
         C         C         1.0       0.6204279173701936  0.9722925280766848  0.3804559799910001 1.0000   
         C         C         1.0       0.6121347919755461  0.9680280622295251  0.35299611464619224          1.0000   
         C         C         1.0       0.6238481953948806  0.9527922147212949  0.3342117539986717 1.0000   
         H         H         1.0       0.6720614902438576  0.9426228850820315  0.37587115174254015          1.0000   
         H         H         1.0       0.6484224896822055  0.9646949231858482  0.4098855490738834 1.0000   
         H         H         1.0       0.5933445575077029  0.9729727860935841  0.3478527887680276 1.0000   
         H         H         1.0       0.6153348371609707  0.9500649587824996  0.31453389654918446          1.0000   
         C         C         1.0       0.6000374369947197  0.024581032214478382         0.3731443370576866 1.0000   
         C         C         1.0       0.5901044133578318  0.008720130308678353         0.3911462183652331 1.0000   
         C         C         1.0       0.5690699880637332  0.015365193837352686         0.4049328325656702 1.0000   
         C         C         1.0       0.5591273007108352  0.03755707170050715           0.3981842037352261 1.0000   
         C         C         1.0       0.5693171723561015  0.05334526512497906           0.3789032576348976 1.0000   
         C         C         1.0       0.5903203990008609  0.0473326948518904  0.3670049272640631 1.0000   
         C         C         1.0       0.6043424848001057  0.9861144761482872  0.40250088673412304          1.0000   
         C         C         1.0       0.6187626702701315  0.00012371517006859456       0.42858935240801177          1.0000   
         C         C         1.0       0.6092194547258272  0.0013783265193556549        0.4570235620781424 1.0000   
         C         C         1.0       0.618326967944144   0.017863657288077484         0.47556908080823757          1.0000   
         C         C         1.0       0.6391915257891231  0.030049559120297165         0.4696377738886996 1.0000   
         C         C         1.0       0.6500338784598273  0.027385521738373608         0.44267633251821725          1.0000   
         C         C         1.0       0.6393352659640738  0.013029781290472497         0.4224085273540762 1.0000   
         C         C         1.0       0.5701756989362741  0.9547896786369588  0.3996279342434147 1.0000   
         C         C         1.0       0.5580774585477543  0.934004980675294   0.4084971828131965 1.0000   
         C         C         1.0       0.5645875826432516  0.9234804087823779  0.4332362843740158 1.0000   
         C         C         1.0       0.5847227214305136  0.9322526532407149  0.4469687692619421 1.0000   
         C         C         1.0       0.5974282864385821  0.9507083182297071  0.43664289536540923          1.0000   
         C         C         1.0       0.5885063149028407  0.9636938032378061  0.4146235737719561 1.0000   
         C         C         1.0       0.5490767400070846  0.9025917864753498  0.44864955107514953          1.0000   
         C         C         1.0       0.49262668023610307           0.9564078363904724 0.45153709080795484          1.0000   
         C         C         1.0       0.4912542965359436  0.9380347964723222  0.4323573715346476 1.0000   
         C         C         1.0       0.5060933104384953  0.918254445454323   0.43482237090900794          1.0000   
         C         C         1.0       0.5243578789393339  0.9172310314074963  0.45417232185873246          1.0000   
         C         C         1.0       0.5248240286799911  0.9361288046140057  0.4744918403386155 1.0000   
         C         C         1.0       0.5101663278005895  0.9559632940209231  0.47280671079631703          1.0000   
         C         C         1.0       0.560996576310111   0.8898207731941328  0.4746446403101272 1.0000   
         C         C         1.0       0.5826780156871859  0.8789670946513691  0.4722335088537722 1.0000   
         C         C         1.0       0.5943127276477552  0.8713469979754395  0.49600842628733416          1.0000   
         C         C         1.0       0.5849233138176533  0.8753513683948716  0.5216409987887839 1.0000   
         C         C         1.0       0.5604086887341875  0.8809555950439139  0.5240800648723494 1.0000   
         C         C         1.0       0.5489323849029677  0.8883404739438643  0.5002444622118898 1.0000   
         C         C         1.0       0.5295033181782006  0.8599994837757242  0.43700619096996896          1.0000   
         C         C         1.0       0.5286916629917393  0.8388945635219849  0.4216838986134689 1.0000   
         C         C         1.0       0.5411142499229935  0.8358301243579316  0.39706960393779944          1.0000   
         C         C         1.0       0.5555872181961994  0.855207301708281   0.3885196474032833 1.0000   
         C         C         1.0       0.5582275621946877  0.8757692939693926  0.40514215274525517          1.0000   
         C         C         1.0       0.5446229627710849  0.8791390530079146  0.4290653498673432 1.0000   
         H         H         1.0       0.6180757760260069  0.021840358895510503         0.36483843054335724          1.0000   
         H         H         1.0       0.560999235382092   0.004496613894810819         0.42182629250307657          1.0000   
         H         H         1.0       0.544069217071116   0.04442514886485971           0.4113744810401615 1.0000   
         H         H         1.0       0.6014710960610268  0.061001041383488275         0.35602212641346703          1.0000   
         H         H         1.0       0.5916832321991211  0.9928403829317501  0.4628132207275849 1.0000   
         H         H         1.0       0.6095039620798364  0.021141089875391872         0.49552516649326556          1.0000   
         H         H         1.0       0.6662301593192989  0.03756254760336453           0.43863358999527363          1.0000   
         H         H         1.0       0.646070351301416   0.015644927677669562         0.40127594676861045          1.0000   
         H         H         1.0       0.5643304499459568  0.9635252389580331  0.3804638035661313 1.0000   
         H         H         1.0       0.5437102500190926  0.9264708833937138  0.3951015671238201 1.0000   
         H         H         1.0       0.5905994519734461  0.9243423408561652  0.46635764947874275          1.0000   
         H         H         1.0       0.6132635968686332  0.9530045573030913  0.44859744247136807          1.0000   
         H         H         1.0       0.4781646491657892  0.9390756803392011  0.41635247741321707          1.0000   
         H         H         1.0       0.502707744648494   0.9039092410308256  0.4182855706268753 1.0000   
         H         H         1.0       0.539022460589565   0.9357459505618176  0.4913479550635091 1.0000   
         H         H         1.0       0.5121106103541249  0.9715810359460004  0.48719271853905777          1.0000   
         H         H         1.0       0.5926870783490126  0.8776246681139556  0.4532879923388785 1.0000   
         H         H         1.0       0.6126150179522132  0.8647344347957366  0.4924011553523254 1.0000   
         H         H         1.0       0.5510242994915107  0.8822065630909752  0.5447627854583157 1.0000   
         H         H         1.0       0.5315100151091912  0.8961185274648696  0.5037548213956109 1.0000   
         H         H         1.0       0.5204755853021733  0.8588213087483544  0.457909146774937  1.0000   
         H         H         1.0       0.5173340948986682  0.8249374515152393  0.43000817273688113          1.0000   
         H         H         1.0       0.5648066440177261  0.8534773872408328  0.36896353974993046          1.0000   
         H         H         1.0       0.572043382051473   0.8881940579998232  0.39853858162725514          1.0000   
         C         C         1.0       0.5222972266956375  0.19841312773656297           0.3220002757874536 1.0000   
         C         C         1.0       0.5210373889640907  0.2210517070324338  0.3344424802524508 1.0000   
         C         C         1.0       0.5404145926781818  0.23025162357752668           0.34882106292886184          1.0000   
         C         C         1.0       0.5620799746557587  0.218746096322448   0.3489990330154567 1.0000   
         C         C         1.0       0.5623496914013136  0.19659952292955413           0.3357658011998655 1.0000   
         C         C         1.0       0.543226231608911   0.18615432493352294           0.32239535027262256          1.0000   
         H         H         1.0       0.5063268825338609  0.23297237652012207           0.329750204239568  1.0000   
         H         H         1.0       0.5398275743836027  0.24862352023415726           0.3578736700646936 1.0000   
         H         H         1.0       0.5796444309210831  0.189010203433865   0.33230871040427107          1.0000   
         H         H         1.0       0.544774412459674   0.1678913518756766  0.31575515798333254          1.0000   
         C         C         1.0       0.5961767601025828  0.19294321171987305           0.3913748298994813 1.0000   
         C         C         1.0       0.6051822669499636  0.21265207165747518           0.3764512844698934 1.0000   
         C         C         1.0       0.6297702713483165  0.21515884421727416           0.3756221849734024 1.0000   
         C         C         1.0       0.6442188047232146  0.19736954977422408           0.38368491860182735          1.0000   
         C         C         1.0       0.6348132321806715  0.17694375651037905           0.39524542587219874          1.0000   
         C         C         1.0       0.6106956234775227  0.17525965425496995           0.40065375664023056          1.0000   
         C         C         1.0       0.5878429668078394  0.2304542906520694  0.35782418461094945          1.0000   
         C         C         1.0       0.5857862610301063  0.2523416456658709  0.379844388636315  1.0000   
         C         C         1.0       0.60168733990293    0.2711549662467943  0.37903083226931494          1.0000   
         C         C         1.0       0.5972757349793414  0.2928155983024189  0.3936489725838704 1.0000   
         C         C         1.0       0.5783435308564068  0.2943284552017793  0.4118087177432329 1.0000   
         C         C         1.0       0.5650344686508988  0.27411044637863535           0.4167435834021337 1.0000   
         C         C         1.0       0.5690096462125296  0.252311788168097   0.4014742018964443 1.0000   
         C         C         1.0       0.6121845642230308  0.22316523767283072           0.31068418498603934          1.0000   
         C         C         1.0       0.625122015314763   0.23302652434516774           0.28768157173658226          1.0000   
         C         C         1.0       0.6247313193782258  0.2579215694334074  0.28135347888631995          1.0000   
         C         C         1.0       0.6071593424530448  0.2698956347323803  0.2961281099785483 1.0000   
         C         C         1.0       0.5928889459794506  0.25930829269485506           0.31668925729817754          1.0000   
         C         C         1.0       0.5975445216081507  0.23708689942335245           0.3267338662173255 1.0000   
         C         C         1.0       0.6430242404328758  0.2710156999651415  0.25971500610930104          1.0000   
         C         C         1.0       0.6847217807227151  0.21483418135552934           0.21673743652257987          1.0000   
         C         C         1.0       0.6731535485209417  0.23056408019592728           0.2001773624478255 1.0000   
         C         C         1.0       0.6610419432240523  0.24921486957808253           0.212817115481577  1.0000   
         C         C         1.0       0.6600919993020992  0.25301408349986976           0.24233112811851318          1.0000   
         C         C         1.0       0.6770109596245023  0.23955712085917813           0.2575924360397774 1.0000   
         C         C         1.0       0.6897451068188858  0.2216985867734798  0.24388718055635894          1.0000   
         C         C         1.0       0.6619328658615442  0.2894226787722271  0.27639333684448864          1.0000   
         C         C         1.0       0.6690006384539982  0.2871141765835851  0.3045237900707061 1.0000   
         C         C         1.0       0.6884631317089626  0.2996122293621034  0.3169087654875788 1.0000   
         C         C         1.0       0.7012998524536631  0.315317276493961   0.30033432579899405          1.0000   
         C         C         1.0       0.6941538392928197  0.3186192878541257  0.2731343957563211 1.0000   
         C         C         1.0       0.6763596439188646  0.30441896913842637           0.26111780103498977          1.0000   
         C         C         1.0       0.6237050233479166  0.3083233450134711  0.2331131783381615 1.0000   
         C         C         1.0       0.6072758563320533  0.3170597321755613  0.21553835440993427          1.0000   
         C         C         1.0       0.5923059557743993  0.30211372735969716           0.2000199630602391 1.0000   
         C         C         1.0       0.5924831409844578  0.27756462346345584           0.20332775492473562          1.0000   
         C         C         1.0       0.6088828730144662  0.26805503047224916           0.2216399144402857 1.0000   
         C         C         1.0       0.6250951251102748  0.2832608737524335  0.23679579502919382          1.0000   
         H         H         1.0       0.576611949777188   0.1920259816859685  0.39272322611054983          1.0000   
         H         H         1.0       0.6380101570663906  0.23113217499632724           0.36539605261362695          1.0000   
         H         H         1.0       0.6620297595962147  0.19888474881967466           0.3788205072177252 1.0000   
         H         H         1.0       0.6047296547104312  0.1600817445038528  0.4123166755776268 1.0000   
         H         H         1.0       0.6153354103380347  0.27181978419922875           0.36180109813191547          1.0000   
         H         H         1.0       0.6095309130991882  0.30849956437136694           0.39118496126983676          1.0000   
         H         H         1.0       0.5506416234451718  0.27466764262985827           0.4325130367488187 1.0000   
         H         H         1.0       0.5576399854014086  0.23565880455209803           0.40359428271073944          1.0000   
         H         H         1.0       0.617681823401214   0.2060852176042067  0.31795055998955446          1.0000   
         H         H         1.0       0.6376997772421272  0.22060252462908073           0.2788971578342761 1.0000   
         H         H         1.0       0.6029706271386457  0.28843549619920106           0.28836902813684717          1.0000   
         H         H         1.0       0.5809539620292316  0.2707418596956747  0.32738690179447455          1.0000   
         H         H         1.0       0.6731907061342313  0.23035243088567545           0.1774598519090816 1.0000   
         H         H         1.0       0.6520538627933152  0.26121978090345777           0.1980971827905678 1.0000   
         H         H         1.0       0.6805219068951182  0.2434727482011599  0.27936438262676   1.0000   
         H         H         1.0       0.7035192421595513  0.21301959320873845           0.2555591039415942 1.0000   
         H         H         1.0       0.6602106548659721  0.2740088846315935  0.31859812950012656          1.0000   
         H         H         1.0       0.6928273934052336  0.2960857673918445  0.3389009408078415 1.0000   
         H         H         1.0       0.7052428432342144  0.3307729473460262  0.25992323978297915          1.0000   
         H         H         1.0       0.6746764307930043  0.3061649324792046  0.23807817605760204          1.0000   
         H         H         1.0       0.6349564631012025  0.3219623580675491  0.24397561654271624          1.0000   
         H         H         1.0       0.6056982831223507  0.3371519214447731  0.21109920501064525          1.0000   
         H         H         1.0       0.5774817368849577  0.2658819250313728  0.19538580146355125          1.0000   
         H         H         1.0       0.6068213377799206  0.24855656910987528           0.22493935625525624          1.0000   
         C         C         1.0       0.5564666547384376  0.1763014726702732  0.5289211337564788 1.0000   
         C         C         1.0       0.5565003720282927  0.20104826418097496           0.5274179785702867 1.0000   
         C         C         1.0       0.5722660339910682  0.21430805648758766           0.5428618236111574 1.0000   
         C         C         1.0       0.5897358803525276  0.20278169906562438           0.5586522902985865 1.0000   
         C         C         1.0       0.5874464539093637  0.1779919521895905  0.562868033959328  1.0000   
         C         C         1.0       0.5711268956245905  0.16420420951433543           0.5479207323261495 1.0000   
         H         H         1.0       0.5463439228821758  0.2098532835287264  0.5119284339406068 1.0000   
         H         H         1.0       0.5719192830726021  0.23325147076502603           0.5410090054589394 1.0000   
         H         H         1.0       0.5981125838699342  0.1678666601094237  0.5773351410084415 1.0000   
         H         H         1.0       0.572231579176446   0.14533755743414148           0.5510320412914824 1.0000   
         C         C         1.0       0.654923187830717   0.20574229411974362           0.5955193578932555 1.0000   
         C         C         1.0       0.6374159518677408  0.20058440880663744           0.576023805699387  1.0000   
         C         C         1.0       0.6433845905737381  0.18182955440769488           0.5552112230072516 1.0000   
         C         C         1.0       0.6659755001651282  0.17208278814181338           0.5548311672787339 1.0000   
         C         C         1.0       0.6834916279691807  0.17891951785542287           0.57462967571469   1.0000   
         C         C         1.0       0.6769146789638745  0.19577154185823675           0.5951025104814645 1.0000   
         C         C         1.0       0.6122787439220108  0.214560031726806   0.5733518544414054 1.0000   
         C         C         1.0       0.600610089702727   0.22158300686826715           0.6046646574218215 1.0000   
         C         C         1.0       0.5859445195657215  0.24201577847265066           0.6082126306285593 1.0000   
         C         C         1.0       0.6039167271348219  0.3091649474353922  0.11276927972722034          1.0000   
         C         C         1.0       0.5940792773570387  0.29194003491606973           0.1307546424499839 1.0000   
         C         C         1.0       0.6047847300012333  0.26892846566877054           0.13225420932233875          1.0000   
         C         C         1.0       0.623122819660934   0.2636080381619259  0.11484267226602271          1.0000   
         C         C         1.0       0.6232533212424947  0.23641099914089675           0.5287667690995592 1.0000   
         C         C         1.0       0.6349878275078144  0.2536986688752948  0.5124106096104761 1.0000   
         C         C         1.0       0.6454658282001484  0.27398549865575317           0.526119943523324  1.0000   
         C         C         1.0       0.6466919784691749  0.2740581206377058  0.5558892719482699 1.0000   
         C         C         1.0       0.6341888274921226  0.25661324478007314           0.5705371164974399 1.0000   
         C         C         1.0       0.6226970326598776  0.23698128725739862           0.5579682755894586 1.0000   
         C         C         1.0       0.658335895096104   0.29514535132585945           0.5085194823758697 1.0000   
         C         C         1.0       0.712277050825036   0.2451375735701427  0.47097802394786975          1.0000   
         C         C         1.0       0.6926037402218178  0.25224900170138653           0.4551758369616894 1.0000   
         C         C         1.0       0.6755980305798351  0.2685337747280365  0.4657994750094058 1.0000   
         C         C         1.0       0.6790615018828476  0.2789935238010592  0.49177887956841754          1.0000   
         C         C         1.0       0.7000776906493432  0.2740515202512131  0.506791704525483  1.0000   
         C         C         1.0       0.7168168656442178  0.25653026585543065           0.4964256686073706 1.0000   
         C         C         1.0       0.6671269569833512  0.31972358422432723           0.5241017305647945 1.0000   
         C         C         1.0       0.6531097537420609  0.33155325800530877           0.5447232465426453 1.0000   
         C         C         1.0       0.6556192316746516  0.35615843762003646           0.5493761045951124 1.0000   
         C         C         1.0       0.6713417152059891  0.3689858467293406  0.5335515891577862 1.0000   
         C         C         1.0       0.6856056319902565  0.35843438738813255           0.5137570670890903 1.0000   
         C         C         1.0       0.6839836758958883  0.3341215467006864  0.5099406995896567 1.0000   
         C         C         1.0       0.6464901037825216  0.31732374579047523           0.4636688391654524 1.0000   
         C         C         1.0       0.6302974259321319  0.3276466058124467  0.4451535027441863 1.0000   
         C         C         1.0       0.6063845542911865  0.3287885041029506  0.4524482439229206 1.0000   
         C         C         1.0       0.5991714434857072  0.3194593215327415  0.47769751652032494          1.0000   
         C         C         1.0       0.6149223877010683  0.3085855527517367  0.4956003670708228 1.0000   
         C         C         1.0       0.6393610257573735  0.30632187622632545           0.48913149952812074          1.0000   
         H         H         1.0       0.6734742978218364  0.2645980304155509  0.1246641936063455 1.0000   
         H         H         1.0       0.6309459499771108  0.17600858844416634           0.539481792749903  1.0000   
         H         H         1.0       0.671677460531493   0.16035803138562862           0.5387388072726774 1.0000   
         H         H         1.0       0.705374073029183   0.24107379000742085           0.13373002304935455          1.0000   
         H         H         1.0       0.5843586996935075  0.2540955758078248  0.5904997694274422 1.0000   
         H         H         1.0       0.5979726997592695  0.32768831409204136           0.1141860660237738 1.0000   
         H         H         1.0       0.5995632026291611  0.2546762123536628  0.14646559516565108          1.0000   
         H         H         1.0       0.6316281495509988  0.24546033504657538           0.11761997302210761          1.0000   
         H         H         1.0       0.6147630831959844  0.22130733079060366           0.5161203714839459 1.0000   
         H         H         1.0       0.6349575100817585  0.25103035046692607           0.4903257381959226 1.0000   
         H         H         1.0       0.6568084070242961  0.2880698857346783  0.5681501174893787 1.0000   
         H         H         1.0       0.6376140037642561  0.2565193138140351  0.593100554160568  1.0000   
         H         H         1.0       0.6900097979674373  0.2430742763561682  0.4347566783829913 1.0000   
         H         H         1.0       0.6584011048339535  0.2685687555859408  0.4529575415319717 1.0000   
         H         H         1.0       0.7018910814062199  0.28154945572723644           0.527438722930907  1.0000   
         H         H         1.0       0.7324039567609845  0.25120787798007754           0.508137428034447  1.0000   
         H         H         1.0       0.6385025279903936  0.32381121334068774           0.555563402083211  1.0000   
         H         H         1.0       0.6409328976565891  0.36524438336655723           0.5613578260198384 1.0000   
         H         H         1.0       0.6960959838167383  0.3681255858219738  0.49891060846735946          1.0000   
         H         H         1.0       0.6941662741521967  0.3275076627212029  0.4915491253224809 1.0000   
         H         H         1.0       0.6646603962552403  0.3153944085304115  0.45751267883113234          1.0000   
         H         H         1.0       0.6353681820270891  0.3345131882789875  0.42482357762351824          1.0000   
         H         H         1.0       0.5797576653466515  0.32109307813107096           0.4823860925506018 1.0000   
         H         H         1.0       0.6074675256633568  0.2998565878792886  0.5129136294531339 1.0000   
         C         C         1.0       0.7320062017117931  0.025629700460105157         0.20999038540230686          1.0000   
         C         C         1.0       0.7252656487254818  0.021011754186252004         0.1826363475044225 1.0000   
         C         C         1.0       0.7235782804867565  0.040001082781320196         0.16395959512229366          1.0000   
         C         C         1.0       0.728107801834017   0.06346004329932023           0.17315764143491638          1.0000   
         C         C         1.0       0.7360536466323715  0.06821667963085973           0.2006733056153122 1.0000   
         C         C         1.0       0.7386426516152444  0.04922503668925992           0.2185221312668694 1.0000   
         H         H         1.0       0.7232008895282225  0.001514059021410219         0.17696232152851427          1.0000   
         H         H         1.0       0.7146267460187865  0.035761349995782066         0.14589563332660194          1.0000   
         H         H         1.0       0.7385751594846208  0.08595728995338615           0.21096204500675494          1.0000   
         H         H         1.0       0.7458117855573616  0.05383401004248722           0.2397579916636196 1.0000   
         C         C         1.0       0.6972519878284736  0.10713926869485087           0.19060228914819924          1.0000   
         C         C         1.0       0.7096410282432818  0.10665080537161516           0.16517493662118693          1.0000   
         C         C         1.0       0.7136504876462053  0.12901334961318423           0.15159777392144863          1.0000   
         C         C         1.0       0.7025762121067436  0.14947905173565423           0.16238553540363096          1.0000   
         C         C         1.0       0.6904820122656786  0.14942949831954702           0.18791264731931565          1.0000   
         C         C         1.0       0.6884690008814428  0.12903459577973447           0.20146450216029316          1.0000   
         C         C         1.0       0.722529128401059   0.083295284405702   0.15146585765486043          1.0000   
         C         C         1.0       0.7024272568708331  0.07803462823579069           0.12750139202069935          1.0000   
         C         C         1.0       0.7042085973126189  0.08565168995100057           0.09939688863928717          1.0000   
         C         C         1.0       0.6850383264624769  0.08071124826043968           0.08053965295910248          1.0000   
         C         C         1.0       0.6630078125406447  0.07124672917383434           0.09065964958092217          1.0000   
         C         C         1.0       0.6611162844058569  0.06791641128318959           0.11933094233767963          1.0000   
         C         C         1.0       0.6793908293056142  0.06972898260223824           0.13790252277585657          1.0000   
         C         C         1.0       0.7629035477754231  0.10489648410128265           0.1602347060431361 1.0000   
         C         C         1.0       0.7830554227803441  0.11567565428409694           0.14967133469623026          1.0000   
         C         C         1.0       0.7920241500225292  0.11053067745233891           0.12278958473196287          1.0000   
         C         C         1.0       0.7801602540625918  0.09219218238680486           0.10753271858241367          1.0000   
         C         C         1.0       0.7596009862088217  0.0811238988939297  0.11797828177090423          1.0000   
         C         C         1.0       0.7491504175842691  0.08983758490872226           0.142588435123343  1.0000   
         C         C         1.0       0.8102877059457101  0.11769071471003685           0.6081479534568659 1.0000   
         C         C         1.0       0.7531249334418312  0.1663199812263343  0.5822679511886959 1.0000   
         C         C         1.0       0.7692686725164749  0.17491908593932778           0.6036542389596313 1.0000   
         C         C         1.0       0.7877438198398885  0.16031662386087306           0.6094458629464073 1.0000   
         C         C         1.0       0.79140698169579    0.13743908113986894           0.5962313277772633 1.0000   
         C         C         1.0       0.7758477236063328  0.13198151747975911           0.5746308594599427 1.0000   
         C         C         1.0       0.757773421202805   0.14633828407064328           0.5666261504220201 1.0000   
         C         C         1.0       0.8242715800698686  0.10319407123752662           0.5837596055265103 1.0000   
         C         C         1.0       0.8307841690993679  0.07867045770552689           0.5862174990029547 1.0000   
         C         C         1.0       0.8410804971418423  0.06662063647006351           0.5636090027207478 1.0000   
         C         C         1.0       0.8451531305529053  0.07773586375565107           0.538735327913588  1.0000   
         C         C         1.0       0.8401500962302724  0.10203172014413682           0.5365037378046934 1.0000   
         C         C         1.0       0.8289133833383041  0.11385225076763326           0.5584867661855805 1.0000   
         C         C         1.0       0.8448627950163365  0.1472737582540051  0.6139506675655673 1.0000   
         C         C         1.0       0.8650440684866249  0.1561460857884066  0.6263665349242319 1.0000   
         C         C         1.0       0.8735832324582864  0.14581860901168103           0.6516422773451188 1.0000   
         C         C         1.0       0.8585596149445291  0.11855576752172416           0.17003912390200382          1.0000   
         C         C         1.0       0.8398757332334107  0.11417221108367241           0.1516112105119037 1.0000   
         C         C         1.0       0.8330020352328182  0.12727689582799587           0.6251374601205667 1.0000   
         H         H         1.0       0.6938739302538195  0.09104068191539982           0.20270502920173708          1.0000   
         H         H         1.0       0.72426883175547    0.12957378532758912           0.13259230209354447          1.0000   
         H         H         1.0       0.7029746980040467  0.16387563969112398           0.14923694190210432          1.0000   
         H         H         1.0       0.6803274936685783  0.1308648865295925  0.2220670284562525 1.0000   
         H         H         1.0       0.7182271818182425  0.09802477062746494           0.09207563617343445          1.0000   
         H         H         1.0       0.6865557217102283  0.08681657785177022           0.05962418214486487          1.0000   
         H         H         1.0       0.6433501951956629  0.06434165518167001           0.1266954380005202 1.0000   
         H         H         1.0       0.6775938025658922  0.06260542324505484           0.15949355907628818          1.0000   
         H         H         1.0       0.7570878831330501  0.11103289515190529           0.18076515592399667          1.0000   
         H         H         1.0       0.7914768819261857  0.12978636453027567           0.16150812806125064          1.0000   
         H         H         1.0       0.7871433577880116  0.0841696425309854  0.08679125409189713          1.0000   
         H         H         1.0       0.750049493811999   0.0684392639548161  0.10405199815237458          1.0000   
         H         H         1.0       0.7633585184621531  0.19111748786695565           0.6151747003456021 1.0000   
         H         H         1.0       0.7999439085735203  0.16608051859623188           0.6262641267237978 1.0000   
         H         H         1.0       0.7788201405134397  0.11647786290563197           0.5602989541494979 1.0000   
         H         H         1.0       0.7474559390305114  0.14222465195137085           0.5465490706580369 1.0000   
         H         H         1.0       0.824039971407657   0.06765520661969572           0.6038798826086897 1.0000   
         H         H         1.0       0.843913525952562   0.0476412080850801  0.5637824550528021 1.0000   
         H         H         1.0       0.8454453868667587  0.11350735815572974           0.5185978039355247 1.0000   
         H         H         1.0       0.8241118884471325  0.1324023804033074  0.5548543011885496 1.0000   
         H         H         1.0       0.8383096363643988  0.15687545980399376           0.5953480230618642 1.0000   
         H         H         1.0       0.8729876300890884  0.1730576070624696  0.6194923707358773 1.0000   
         H         H         1.0       0.8605992237496298  0.10794983359421557           0.1887149283221931 1.0000   
         H         H         1.0       0.8301154006288795  0.09680439982140394           0.1505184192062855 1.0000   
         C         C         1.0       0.8103977956376598  0.06705933555769625           0.48314722292339757          1.0000   
         C         C         1.0       0.7883013544467903  0.0554677517993698  0.48539602586423813          1.0000   
         C         C         1.0       0.7682930028386159  0.0661762624029491  0.47287675039259347          1.0000   
         C         C         1.0       0.7691775504631136  0.09023001464321008           0.46406217690721246          1.0000   
         C         C         1.0       0.7906400310298509  0.10152302361311975           0.4643900066168227 1.0000   
         C         C         1.0       0.8109405275417617  0.09006837062579907           0.4742435569915932 1.0000   
         H         H         1.0       0.78720113332548    0.03696961431470047           0.4907303010701221 1.0000   
         H         H         1.0       0.7523535249630487  0.05501495409347301           0.4737960392654619 1.0000   
         H         H         1.0       0.793062817170128   0.11926531555252737           0.4577014179251167 1.0000   
         H         H         1.0       0.829097071962802   0.09860260465598106           0.474624362492655  1.0000   
         C         C         1.0       0.749273565259787   0.14034440160980213           0.48133935102171116          1.0000   
         C         C         1.0       0.7439134136794165  0.12981800579758515           0.45534019022710553          1.0000   
         C         C         1.0       0.7347443867943618  0.14515464826695115           0.4350082571288451 1.0000   
         C         C         1.0       0.7285066818263678  0.16811438974203635           0.44084602564521713          1.0000   
         C         C         1.0       0.7314140143855596  0.17736182580137214           0.46767960756823546          1.0000   
         C         C         1.0       0.7426082213162746  0.16352329732056736           0.4879037098004684 1.0000   
         C         C         1.0       0.746414539876045   0.1018111706938721  0.4496853480456074 1.0000   
         C         C         1.0       0.7205726276583767  0.0951263949378573  0.4635049720156782 1.0000   
         C         C         1.0       0.7004859338475     0.09517169603693079           0.44474773152518254          1.0000   
         C         C         1.0       0.6787950844431088  0.08800437591954673           0.4549012141404265 1.0000   
         C         C         1.0       0.6757965922665424  0.08014605734305924           0.4820022268603447 1.0000   
         C         C         1.0       0.6939069055005168  0.08427400966023169           0.5015985994682545 1.0000   
         C         C         1.0       0.7162012300597089  0.09065641214875232           0.49183223431467865          1.0000   
         C         C         1.0       0.7636272266328957  0.10603433523012794           0.3979189443761335 1.0000   
         C         C         1.0       0.7605826617787736  0.10222117934987957           0.3689979410383874 1.0000   
         C         C         1.0       0.7478484754693954  0.08130132463221774           0.3591933699845422 1.0000   
         C         C         1.0       0.7432697849405393  0.06281645208311956           0.37773431752576936          1.0000   
         C         C         1.0       0.741487747313033   0.06856097502195457           0.40597847765276346          1.0000   
         C         C         1.0       0.7509654843525565  0.09106958737024329           0.41644378230400103          1.0000   
         C         C         1.0       0.7333417982997323  0.0836021391380143  0.3308959280362874 1.0000   
         C         C         1.0       0.6715376021546812  0.12338436125361965           0.36599836450929163          1.0000   
         C         C         1.0       0.6893415669393016  0.13574420303848594           0.3538716021552946 1.0000   
         C         C         1.0       0.7098195722685473  0.12410940707735817           0.34404026321324405          1.0000   
         C         C         1.0       0.7105078293859498  0.09861545024561504           0.3431742763531535 1.0000   
         C         C         1.0       0.6908671686208406  0.08674944777806826           0.3552172645124212 1.0000   
         C         C         1.0       0.67168013980311    0.09798894734090843           0.3678311460775266 1.0000   
         C         C         1.0       0.72562536657671    0.05922332322587656           0.31455361691219974          1.0000   
         C         C         1.0       0.7414863709788504  0.04022869473739488           0.3121526911150831 1.0000   
         C         C         1.0       0.7386807283867461  0.022292845915598655         0.29157571862721476          1.0000   
         C         C         1.0       0.718386449598422   0.021811761696525874         0.2752272584644708 1.0000   
         C         C         1.0       0.7016118240384361  0.039260341586450975         0.2778325556751517 1.0000   
         C         C         1.0       0.7059178030972033  0.058581946388816634         0.2958562680195537 1.0000   
         C         C         1.0       0.7336155693211508  0.11055469182063357           0.28631221985875305          1.0000   
         C         C         1.0       0.7467022824086277  0.12186373715307373           0.26623790519179846          1.0000   
         C         C         1.0       0.77045329306002    0.11760606293243352           0.26232845019425477          1.0000   
         C         C         1.0       0.7820549491236817  0.10503114368017669           0.2814126081893689 1.0000   
         C         C         1.0       0.7704263232508506  0.09522881928396311           0.30443670954629865          1.0000   
         C         C         1.0       0.7457121328949835  0.09731930398994443           0.30658165305819124          1.0000   
         H         H         1.0       0.7564201030930399  0.13004873749796703           0.4977727554458658 1.0000   
         H         H         1.0       0.7294404770216673  0.13727375080453708           0.41473287203143444          1.0000   
         H         H         1.0       0.7175856783617167  0.1771744069786687  0.42593349459967655          1.0000   
         H         H         1.0       0.7455302613335334  0.16829926896307268           0.5106189751093455 1.0000   
         H         H         1.0       0.7028284170591125  0.09792538753504808           0.42328010448809283          1.0000   
         H         H         1.0       0.6626842171055429  0.087732520013733   0.4425270405618959 1.0000   
         H         H         1.0       0.6908334655713179  0.07872985117870179           0.5225862849279119 1.0000   
         H         H         1.0       0.7309050444932984  0.09283451569753846           0.5077961735623591 1.0000   
         H         H         1.0       0.7730122608652095  0.12065631842451811           0.40558362010053584          1.0000   
         H         H         1.0       0.7654458946509551  0.1178525989017798  0.3556379675838534 1.0000   
         H         H         1.0       0.7327738416226165  0.04674453347233553           0.37305812979581343          1.0000   
         H         H         1.0       0.7347966524514663  0.05491518878505386           0.41902660954542675          1.0000   
         H         H         1.0       0.6900913715262981  0.15515955388597244           0.3557965320657967 1.0000   
         H         H         1.0       0.7241352565708049  0.13404122832261775           0.3353503206970069 1.0000   
         H         H         1.0       0.6895790782181345  0.06726045607655286           0.3598858896878579 1.0000   
         H         H         1.0       0.6569755920888206  0.08985442812091284           0.37672849604156744          1.0000   
         H         H         1.0       0.7578777251962859  0.040912201877115965         0.32357296452451445          1.0000   
         H         H         1.0       0.7508201149009422  0.00729872192166825           0.29273116861002024          1.0000   
         H         H         1.0       0.6877213794992387  0.040180856271659675         0.26068929581690153          1.0000   
         H         H         1.0       0.6922593297244094  0.07359991111137869           0.2940423069611625 1.0000   
         H         H         1.0       0.7145654497201289  0.11460160414533313           0.2864986227242549 1.0000   
         H         H         1.0       0.735954539426817   0.13257284931186092           0.2518505401773694 1.0000   
         H         H         1.0       0.7997082668832033  0.0986892773557077  0.2787487194674018 1.0000   
         H         H         1.0       0.7813494651711824  0.0812191084832403  0.31500053180442444          1.0000   
         C         C         1.0       0.21692907606902362           0.14360073476351407          0.22025419206790267          1.0000   
         C         C         1.0       0.22705091019575754           0.13954539515953054          0.19396095498534202          1.0000   
         C         C         1.0       0.23482145231769774           0.11681928781466959          0.18716991532386362          1.0000   
         C         C         1.0       0.23269971279582405           0.09741813319501519          0.2065457266154365 1.0000   
         C         C         1.0       0.22372191967355246           0.10301756603396357          0.23302235521272952          1.0000   
         C         C         1.0       0.21511293355277813           0.12570847018023773          0.24046454331998632          1.0000   
         H         H         1.0       0.23228918904262388           0.1533020709711925 0.1793000624792543 1.0000   
         H         H         1.0       0.24362471562598279           0.11329170634716945          0.16744343461414737          1.0000   
         H         H         1.0       0.22240270414514512           0.08709244194727875          0.24696673853359452          1.0000   
         H         H         1.0       0.20620543870516317           0.12765656099259   0.26183492879100884          1.0000   
         C         C         1.0       0.24099842208782465           0.02668850757426333          0.21716857958136096          1.0000   
         C         C         1.0       0.2296466284901459  0.04920754874653421           0.2151529133968874 1.0000   
         C         C         1.0       0.20520549285464249           0.04902200814775392          0.218329134103662  1.0000   
         C         C         1.0       0.1920016281808707  0.02847892001904051           0.21736242086184576          1.0000   
         C         C         1.0       0.20261264079579266           0.007063802541271702         0.21216615086404786          1.0000   
         C         C         1.0       0.22783121963256928           0.005792914533804705         0.21419174091290216          1.0000   
         C         C         1.0       0.2427343585057537  0.07090686564523666           0.19886003445898562          1.0000   
         C         C         1.0       0.27051810313178987           0.076180400866252  0.20735850567466385          1.0000   
         C         C         1.0       0.2878463843184115  0.08579071197130651           0.18981776703881156          1.0000   
         C         C         1.0       0.3106732109252757  0.08985295976371206           0.19964920366175135          1.0000   
         C         C         1.0       0.31591581111755623           0.0888383287854512 0.2286098778034909 1.0000   
         C         C         1.0       0.2982558870965859  0.08085167551091219           0.24709073176513838          1.0000   
         C         C         1.0       0.27611214040327026           0.07532778193149453          0.23574426981509486          1.0000   
         C         C         1.0       0.21750545454157347           0.0697163533001505 0.1527599159495498 1.0000   
         C         C         1.0       0.21319598423060418           0.0644643676905271 0.12462348302428312          1.0000   
         C         C         1.0       0.23182562111805077           0.05411536017017671          0.10894817328235092          1.0000   
         C         C         1.0       0.25216120187207564           0.047064829988672896         0.12296865860068981          1.0000   
         C         C         1.0       0.2548754129453916  0.04971337133656406           0.15150727606676465          1.0000   
         C         C         1.0       0.23837953150348337           0.062311024831275055         0.16697158772302487          1.0000   
         C         C         1.0       0.22897552673055585           0.04824510368671309          0.07563656909957572          1.0000   
         C         C         1.0       0.1914657809857248  0.978934836612128   0.0879542555827741 1.0000   
         C         C         1.0       0.17841455741800746           0.9997894412158616 0.0862047833928558 1.0000   
         C         C         1.0       0.19018116471328614           0.02102869926905182          0.0811547010490401 1.0000   
         C         C         1.0       0.21529187913268713           0.02273443649629714          0.07574168993349173          1.0000   
         C         C         1.0       0.22781909266568712           0.0015137545014338727        0.07685155524825316          1.0000   
         C         C         1.0       0.2153024335342855  0.9799563239864282  0.08323394916129465          1.0000   
         C         C         1.0       0.2527506387600652  0.04671528272070158           0.0558735986335801 1.0000   
         C         C         1.0       0.2741178000483837  0.05924438518829378           0.062356399856516635         1.0000   
         C         C         1.0       0.2936533061607617  0.05765425584417305           0.04528625312533219          1.0000   
         C         C         1.0       0.29405965169498444           0.04429872227353626          0.020975241020801727         1.0000   
         C         C         1.0       0.273118393981442   0.031733324997973655         0.01368412241868189          1.0000   
         C         C         1.0       0.2527953256585486  0.03216280001706373           0.0315546775975144 1.0000   
         C         C         1.0       0.22571436163244138           0.12286406313646658          0.5375700438101108 1.0000   
         C         C         1.0       0.2223889370771583  0.1325019230017681  0.5106738084139798 1.0000   
         C         C         1.0       0.217929521348579   0.15644687942351757           0.507462635599209  1.0000   
         C         C         1.0       0.2162090803277465  0.169850188913811   0.5316840220528493 1.0000   
         C         C         1.0       0.22153579452812489           0.09386633882480154          0.06437562824635812          1.0000   
         C         C         1.0       0.21680908865508958           0.06901593230049441          0.057431524133088496         1.0000   
         H         H         1.0       0.2606445945205146  0.024655301033825072         0.21427660681141805          1.0000   
         H         H         1.0       0.19476449310513813           0.06457349883700819          0.21788882979968047          1.0000   
         H         H         1.0       0.17212213192855003           0.030366901212718345         0.21881746143882877          1.0000   
         H         H         1.0       0.2373949524837448  0.9898545401585817  0.21440232407047843          1.0000   
         H         H         1.0       0.28137097966324776           0.0881361268402817 0.16739415510058708          1.0000   
         H         H         1.0       0.323594092018485   0.09596489781092649           0.18366134135371817          1.0000   
         H         H         1.0       0.3011192060958499  0.08154582591219835           0.26970065366495677          1.0000   
         H         H         1.0       0.26422456387190735           0.06880333404630204          0.2523693686483171 1.0000   
         H         H         1.0       0.20332525396583898           0.07841054929855054          0.1628564010892792 1.0000   
         H         H         1.0       0.19586501717404908           0.06801842066917899          0.11462897159948572          1.0000   
         H         H         1.0       0.26692271928291117           0.038216052357893604         0.11260136733399229          1.0000   
         H         H         1.0       0.27057658751171987           0.04336768361053567          0.16006794066223085          1.0000   
         H         H         1.0       0.1554305231819687  0.07999607555389776           0.5843084988667459 1.0000   
         H         H         1.0       0.1806984573817726  0.0389253848161879  0.08591299221929526          1.0000   
         H         H         1.0       0.2469107444424064  0.00145689386759984           0.07269840353782109          1.0000   
         H         H         1.0       0.22480688993123937           0.963418350659778  0.08399977108075994          1.0000   
         H         H         1.0       0.27565727368698273           0.07123391091737452          0.08055736599183172          1.0000   
         H         H         1.0       0.30893198833939467           0.06891663671173753          0.05071418565657493          1.0000   
         H         H         1.0       0.2718403852807554  0.019630124530692683         0.9969290521698427 1.0000   
         H         H         1.0       0.23508036948228114           0.02424766188989791          0.025728058644505888         1.0000   
         H         H         1.0       0.223888006730427   0.10337910589848365           0.5399556474547558 1.0000   
         H         H         1.0       0.22351986513084465           0.12067041069436835          0.4925662844071302 1.0000   
         H         H         1.0       0.21722556339721133           0.13081736678312214          0.0517248963863537 1.0000   
         H         H         1.0       0.23232185956204218           0.09855039607983364          0.08386944755613222          1.0000   
         C         C         1.0       0.17218065596516544           0.08750225515834407          0.3099571565048513 1.0000   
         C         C         1.0       0.17518332470137019           0.10309793251058108          0.33283916088009474          1.0000   
         C         C         1.0       0.19121455194869658           0.09883163819933019          0.3549195824373969 1.0000   
         C         C         1.0       0.20549506382683905           0.07780190226536485          0.3547350664542033 1.0000   
         C         C         1.0       0.2030250346264229  0.06237133213612095           0.3315511296766288 1.0000   
         C         C         1.0       0.18704980423352072           0.06734859295509363          0.31007646255822574          1.0000   
         H         H         1.0       0.16177683962392805           0.11733299018984572          0.3325944788037769 1.0000   
         H         H         1.0       0.19116865773502795           0.11303784479673296          0.37160805928816504          1.0000   
         H         H         1.0       0.21334397979401232           0.04506420854949455          0.3298722720220718 1.0000   
         H         H         1.0       0.18565671169793738           0.05370254220731696          0.29356664126953114          1.0000   
         C         C         1.0       0.18797138385589504           0.032478736120318485         0.38586302531329886          1.0000   
         C         C         1.0       0.20601933571923192           0.047025294102070125         0.3982147471468917 1.0000   
         C         C         1.0       0.21312561983693373           0.04086301245073698          0.42529156423816034          1.0000   
         C         C         1.0       0.20561787392505534           0.019771762834651874         0.43825332954371   1.0000   
         C         C         1.0       0.18675352195401393           0.006572191453501297         0.4253227898129792 1.0000   
         C         C         1.0       0.1786164329437955  0.01333333657712843           0.3991687982383128 1.0000   
         C         C         1.0       0.219767258137623   0.0678250018111048  0.3822167542842745 1.0000   
         C         C         1.0       0.222218694651497   0.09051865144404542           0.40514231176156   1.0000   
         C         C         1.0       0.24333775234801314           0.1047268631657734 0.40593294511068506          1.0000   
         C         C         1.0       0.24388214562178287           0.12679634273102303          0.42118215019705885          1.0000   
         C         C         1.0       0.2248205808353144  0.13323537058851898           0.43809113208834466          1.0000   
         C         C         1.0       0.2036974803387345  0.1193126308688363  0.4371176783569255 1.0000   
         C         C         1.0       0.20243353543129805           0.09875682320457273          0.42152287654803783          1.0000   
         C         C         1.0       0.25840771807485385           0.03863958210617513          0.38759940416214067          1.0000   
         C         C         1.0       0.2795370683138555  0.02892717991500504           0.37741261680974336          1.0000   
         C         C         1.0       0.28775017402081243           0.03439827385906713          0.3498640010515638 1.0000   
         C         C         1.0       0.2778784998131278  0.055313281634228106         0.33805720824055574          1.0000   
         C         C         1.0       0.25737877595601694           0.06574391119123552          0.3489640173943141 1.0000   
         C         C         1.0       0.24507610110959685           0.05630097083833796          0.3735104683048337 1.0000   
         C         C         1.0       0.30440859961186695           0.018148707483671034         0.3294969247180337 1.0000   
         C         C         1.0       0.24155458993951232           0.9789265356444188 0.30384786383721807          1.0000   
         C         C         1.0       0.25010695709634617           0.9968771309784622 0.2869061467269381 1.0000   
         C         C         1.0       0.2713924965349682  0.008211068450909575         0.2927572013113552 1.0000   
         C         C         1.0       0.2834947286608495  0.001399393315036468         0.31722703089565385          1.0000   
         C         C         1.0       0.2748457578761966  0.9815696910392119  0.33260130892044826          1.0000   
         C         C         1.0       0.2554137253737134  0.9694686590703159  0.3257491363266134 1.0000   
         C         C         1.0       0.3244810361883077  0.003107109717448875         0.3445225305425866 1.0000   
         C         C         1.0       0.3361309084806033  0.01039299612411071           0.368972690436155  1.0000   
         C         C         1.0       0.35562713276486735           0.9985236871827216 0.37956008718334827          1.0000   
         C         C         1.0       0.3629903693949794  0.9772239696520716  0.36645934032597466          1.0000   
         C         C         1.0       0.35272706727432745           0.9697852884210965 0.34162771987206125          1.0000   
         C         C         1.0       0.33334967460306414           0.9825288668892669 0.3307187984530799 1.0000   
         C         C         1.0       0.3259923505855514  0.02303640046067068           0.281000168231083  1.0000   
         C         C         1.0       0.33979734315199767           0.03474260747124313          0.26133923203399895          1.0000   
         C         C         1.0       0.3492779223355273  0.05684174171573785           0.2688861782840515 1.0000   
         C         C         1.0       0.3483516401677588  0.06437464817788939           0.2962134005182058 1.0000   
         C         C         1.0       0.3366751843408585  0.052078218261725866         0.3162123452905088 1.0000   
         C         C         1.0       0.32300318218977603           0.03219586719118084          0.3085020994907588 1.0000   
         H         H         1.0       0.18157890957804126           0.03173427722362643          0.36485869650648245          1.0000   
         H         H         1.0       0.22808201442388693           0.051704329587818565         0.4348247131825103 1.0000   
         H         H         1.0       0.21149571413252288           0.014966519037469261         0.4584401789039127 1.0000   
         H         H         1.0       0.16583721725398556           0.0016903115309010452        0.390515579788536  1.0000   
         H         H         1.0       0.25731479122474493           0.10117153764702769          0.3900456365499021 1.0000   
         H         H         1.0       0.2585997275346797  0.13916298518798298           0.41742070428461236          1.0000   
         H         H         1.0       0.18886224252986716           0.1253122885989766 0.44815154436247134          1.0000   
         H         H         1.0       0.18583970636503155           0.08972393913391351          0.4196789654611817 1.0000   
         H         H         1.0       0.25285245035934056           0.03167817901310466          0.40617816720092054          1.0000   
         H         H         1.0       0.2874805349379841  0.01432268618843402           0.38848296906248925          1.0000   
         H         H         1.0       0.2861754703735292  0.062418103648303816         0.31802490915871223          1.0000   
         H         H         1.0       0.25333278510990315           0.08407183555028239          0.3411280230532588 1.0000   
         H         H         1.0       0.236679349353881   0.005814627546383289         0.2733161089905639 1.0000   
         H         H         1.0       0.27571588441230804           0.023167077711802708         0.2796054063950035 1.0000   
         H         H         1.0       0.2858594257369819  0.9758214334829303  0.34980087344663124          1.0000   
         H         H         1.0       0.24946338220559616           0.9536158830187703 0.3392528327597096 1.0000   
         H         H         1.0       0.33044957855660734           0.026918708882785136         0.3806911947167292 1.0000   
         H         H         1.0       0.36342772780252136           0.0030305748168684143        0.4007520881721274 1.0000   
         H         H         1.0       0.3580272391259108  0.9519360148413516  0.3343679852834421 1.0000   
         H         H         1.0       0.3259477922233175  0.9778811840463004  0.30974627089230694          1.0000   
         H         H         1.0       0.31686575716771626           0.006822532341504094         0.27264509683073795          1.0000   
         H         H         1.0       0.3415041480694904  0.02757848297561782           0.24077828293360898          1.0000   
         H         H         1.0       0.35672265935448494           0.08118971180798679          0.30019181060965494          1.0000   
         H         H         1.0       0.3360093650849433  0.059653167965068934         0.33659022840533714          1.0000   
         C         C         1.0       0.05511282441550058           0.9064175534711156 0.3293893768755317 1.0000   
         C         C         1.0       0.043878295575585646          0.9286196981912548 0.32954469096659617          1.0000   
         C         C         1.0       0.05694462152198043           0.9488468166527799 0.3211035305701075 1.0000   
         C         C         1.0       0.08165723521243887           0.9472591854326694 0.3169953241553185 1.0000   
         C         C         1.0       0.09271415566075206           0.925694550730567  0.3214235991378754 1.0000   
         C         C         1.0       0.08029439445544372           0.9056158222591131 0.3254591154776552 1.0000   
         H         H         1.0       0.023649540155162185          0.927306392108442  0.32982461696742643          1.0000   
         H         H         1.0       0.04705325277408767           0.9644868271519794 0.31470171104632   1.0000   
         H         H         1.0       0.11182664993506101           0.9237289225920591 0.3196174997044809 1.0000   
         H         H         1.0       0.08987578165155576           0.8887095765140034 0.3257555152168518 1.0000   
         C         C         1.0       0.135895187280729   0.9660992246194231  0.3303150792448677 1.0000   
         C         C         1.0       0.12400220606749984           0.9706423854806845 0.30493762101239413          1.0000   
         C         C         1.0       0.1375665509808503  0.9807553905061807  0.2844580763384141 1.0000   
         C         C         1.0       0.16194089038637483           0.9851349796755821 0.286926820581579  1.0000   
         C         C         1.0       0.1723365628306602  0.981639841416805   0.3123794189431814 1.0000   
         C         C         1.0       0.15990876827352646           0.9712213094611083 0.3334011416434572 1.0000   
         C         C         1.0       0.09562638871022874           0.9694642557170695 0.3020525978426539 1.0000   
         C         C         1.0       0.08840406131900869           0.9945557799659983 0.31566520286457583          1.0000   
         C         C         1.0       0.09098690152868372           0.015979871493982056         0.30067085612681227          1.0000   
         C         C         1.0       0.08710648175523206           0.03769188508751231          0.3139280372505783 1.0000   
         C         C         1.0       0.07725598713772097           0.038679417695114404         0.3418405678307343 1.0000   
         C         C         1.0       0.07478543948004535           0.017984918542787165         0.35596465876249445          1.0000   
         C         C         1.0       0.08222816845448078           0.9962377184630434 0.3442903347250726 1.0000   
         C         C         1.0       0.09890898296861038           0.9430868487620345 0.25490854709746313          1.0000   
         C         C         1.0       0.09351229580542458           0.9387256426169681 0.22692272590040752          1.0000   
         C         C         1.0       0.07931301936926753           0.9531463059872761 0.2115517437093526 1.0000   
         C         C         1.0       0.06783026461805441           0.971997577930833  0.22673101346795138          1.0000   
         C         C         1.0       0.0723687223700773  0.9763312492959447  0.2555655608444441 1.0000   
         C         C         1.0       0.08840055430050194           0.962726691530105  0.27004093327573736          1.0000   
         C         C         1.0       0.07872440767313359           0.9519297756344886 0.17727997768965753          1.0000   
         C         C         1.0       0.15310637654344686           0.9732427758130929 0.17411180552735286          1.0000   
         C         C         1.0       0.14728488873202292           0.9492387315152336 0.17112603212179847          1.0000   
         C         C         1.0       0.12315563012598128           0.943494117572595  0.16680559624865027          1.0000   
         C         C         1.0       0.10571757717252073           0.9606328478546089 0.1715864132872705 1.0000   
         C         C         1.0       0.11220320737656267           0.9839240922488617 0.1764300134866428 1.0000   
         C         C         1.0       0.1360997416351475  0.9902511302930105  0.17783687809915197          1.0000   
         C         C         1.0       0.05928062041161142           0.9664753845136765 0.16108672981958685          1.0000   
         C         C         1.0       0.035671365166544344          0.9684063563342241 0.1707881711538752 1.0000   
         C         C         1.0       0.01895744885397166           0.973804147016861  0.15107650729950786          1.0000   
         C         C         1.0       0.024898207536405925          0.9847361094328557 0.12668188628818502          1.0000   
         C         C         1.0       0.0482773810918411  0.985969910640132   0.1184198098086384 1.0000   
         C         C         1.0       0.0650819869006638  0.9766197948874666  0.13608568406730517          1.0000   
         C         C         1.0       0.07440731446435733           0.9169739379969871 0.13933817372096505          1.0000   
         C         C         1.0       0.06415180402763387           0.8955659591883246 0.13009456492015697          1.0000   
         C         C         1.0       0.049711267178411456          0.8815107954427644 0.14816197446050905          1.0000   
         C         C         1.0       0.045957051981986075          0.8899776131373947 0.17547319559425964          1.0000   
         C         C         1.0       0.05504450906645664           0.9109447178276872 0.18438951627712485          1.0000   
         C         C         1.0       0.07048348253927794           0.9244531402734145 0.1677301825666702 1.0000   
         H         H         1.0       0.12408146542905023           0.959408943926276  0.3473978018250694 1.0000   
         H         H         1.0       0.12936193322987574           0.9855079171313347 0.2639512157946993 1.0000   
         H         H         1.0       0.17192644502058702           0.9907628917103874 0.2686015996833881 1.0000   
         H         H         1.0       0.16933698989453938           0.9683851634299804 0.3536940916210621 1.0000   
         H         H         1.0       0.09747126916805662           0.016243868721923294         0.2788811212763182 1.0000   
         H         H         1.0       0.0917220317351044  0.05372282556953234           0.303427718586303  1.0000   
         H         H         1.0       0.06624688330940631           0.017185843457588668         0.37643677332240394          1.0000   
         H         H         1.0       0.07845538650275596           0.9799929446475183 0.3575527856906135 1.0000   
         H         H         1.0       0.11208547223190142           0.9311019438028341 0.265206198477748  1.0000   
         H         H         1.0       0.10383227572629537           0.9240840775814585 0.21758654320711152          1.0000   
         H         H         1.0       0.05671441173777936           0.9844818353416436 0.21625325781003205          1.0000   
         H         H         1.0       0.06162018819014814           0.9897715248979841 0.26555800066039054          1.0000   
         H         H         1.0       0.16213781070922606           0.9380194634050679 0.16913171254273837          1.0000   
         H         H         1.0       0.1184905256785569  0.9250414054073935  0.16439714696335128          1.0000   
         H         H         1.0       0.09783932699235728           0.9959836687377498 0.17974271809589876          1.0000   
         H         H         1.0       0.14261180835622508           0.008032511225272154         0.18367305696051706          1.0000   
         H         H         1.0       0.03039432367605399           0.9589311984355682 0.18967383633719473          1.0000   
         H         H         1.0       0.001224107837491939          0.9690790329804886 0.15739642801506865          1.0000   
         H         H         1.0       0.05335379129808904           0.993285950741071  0.098810070639691  1.0000   
         H         H         1.0       0.08437891696234891           0.975997167279079  0.12923185600275805          1.0000   
         H         H         1.0       0.08422329757824167           0.9301411692734357 0.12518862979632459          1.0000   
         H         H         1.0       0.06840874303590705           0.8896707307365822 0.1093705921423038 1.0000   
         H         H         1.0       0.036093657393111656          0.8794315919736185 0.1917989320073848 1.0000   
         H         H         1.0       0.051851435637954475          0.9169357879262781 0.20663752103342167          1.0000   
         C         C         1.0       0.013189660178898999          0.9814859972676339 0.5334154237894918 1.0000   
         C         C         1.0       0.012329109552012385          0.0006714081860124121        0.5151625060486197 1.0000   
         C         C         1.0       0.03393879709919112           0.009750420155348882         0.5041434291159317 1.0000   
         C         C         1.0       0.05500483007575285           0.0018885000883679393        0.515042251318084  1.0000   
         C         C         1.0       0.05462979541558344           0.9817908957151477 0.5327333532648741 1.0000   
         C         C         1.0       0.0338205257731512  0.971049081360021   0.5413683268818813 1.0000   
         H         H         1.0       0.9963348934498478  0.009346149258655512         0.5074831885586848 1.0000   
         H         H         1.0       0.031399167968240604          0.024559525106402136         0.48848905775419543          1.0000   
         H         H         1.0       0.06884938375146787           0.9708374256768995 0.538841850807837  1.0000   
         H         H         1.0       0.033902367955116475          0.9397999694052189 0.0782529352031136 1.0000   
         C         C         1.0       0.10682579584031963           0.967408253770075  0.06444785627769511          1.0000   
         C         C         1.0       0.10112244396190058           0.01797387037378151          0.5243269578627491 1.0000   
         C         C         1.0       0.12467199627694878           0.02097017289541947          0.514368453508246  1.0000   
         C         C         1.0       0.14283436306233246           0.02305405338688815          0.534444765885041  1.0000   
         C         C         1.0       0.14513090711988316           0.9484987676581289 0.06625190035599071          1.0000   
         C         C         1.0       0.12608828151143261           0.9598830873024745 0.0810074770548439 1.0000   
         C         C         1.0       0.08093956137787282           0.011519161253076726         0.5013034321237007 1.0000   
         C         C         1.0       0.07877302805180271           0.03646901668462821          0.4839381788929908 1.0000   
         C         C         1.0       0.08599857942632319           0.03917089530773721          0.45525352709300654          1.0000   
         C         C         1.0       0.07781174251825385           0.05886812031498545          0.4409408492155266 1.0000   
         C         C         1.0       0.06722062308586674           0.07775030869350652          0.4567710953232776 1.0000   
         C         C         1.0       0.06578351137900862           0.07766470286901095          0.48605700574511523          1.0000   
         C         C         1.0       0.07199805301850648           0.05664418087776757          0.499381699950378  1.0000   
         C         C         1.0       0.10132810190828773           0.9689162644312064 0.4993529614246477 1.0000   
         C         C         1.0       0.10249773636203705           0.9465132875846405 0.4891706789598192 1.0000   
         C         C         1.0       0.09436206860983468           0.9398110209449946 0.4621897011719963 1.0000   
         C         C         1.0       0.08488841225567566           0.9578143918436796 0.44657819978299024          1.0000   
         C         C         1.0       0.07989215415022344           0.9793894756459222 0.4590665093722043 1.0000   
         C         C         1.0       0.08908906768427705           0.9863118978835745 0.48530959416705965          1.0000   
         C         C         1.0       0.09663828601665102           0.9125613377631392 0.4504774220519603 1.0000   
         C         C         1.0       0.16548510887710766           0.9406262607089302 0.4270725860783084 1.0000   
         C         C         1.0       0.1621186479905976  0.9314751023763735  0.4539197179693953 1.0000   
         C         C         1.0       0.142291490835705   0.916926100794284   0.45859002045889485          1.0000   
         C         C         1.0       0.12360842078516716           0.9149369816390578 0.4386206712122959 1.0000   
         C         C         1.0       0.12694219841751533           0.9248894655390127 0.41344051590221065          1.0000   
         C         C         1.0       0.14709677040400138           0.9373389810045488 0.4067318002838504 1.0000   
         C         C         1.0       0.0784868826019514  0.9022141534550597  0.42697455306547305          1.0000   
         C         C         1.0       0.05465704926963477           0.9101447723032582 0.4275447994552348 1.0000   
         C         C         1.0       0.038594199930727546          0.9016259998552788 0.40730538182698706          1.0000   
         C         C         1.0       0.04631311290358808           0.8853571134800374 0.38753821702327584          1.0000   
         C         C         1.0       0.06850403444726871           0.8740838139229468 0.38960028388616   1.0000   
         C         C         1.0       0.08506112230897836           0.8829545882907777 0.40854621426179916          1.0000   
         C         C         1.0       0.10330855324664266           0.8728998384537983 0.4772232081053308 1.0000   
         C         C         1.0       0.09965152932841255           0.858083603711464  0.499322382633494  1.0000   
         C         C         1.0       0.08136224554130653           0.8629267746126138 0.5182204759443076 1.0000   
         C         C         1.0       0.06720172661639778           0.8827881829191856 0.5147849446606619 1.0000   
         C         C         1.0       0.07215412108101571           0.8974648374885076 0.4927304241151689 1.0000   
         C         C         1.0       0.09116162115764613           0.8941407671488115 0.47467770240316504          1.0000   
         H         H         1.0       0.09112498349809846           0.9734492752379066 0.07647357662172083          1.0000   
         H         H         1.0       0.12981556974037536           0.021402762523326624         0.49146213819910467          1.0000   
         H         H         1.0       0.16070226260173362           0.023041670458506358         0.5264267794799137 1.0000   
         H         H         1.0       0.12647523124665835           0.9600182843758595 0.1028710820643423 1.0000   
         H         H         1.0       0.09373193362771935           0.02625987893154247          0.4426221071285714 1.0000   
         H         H         1.0       0.07956198709990013           0.058878552120072536         0.4187732201398116 1.0000   
         H         H         1.0       0.09778962214959441           0.057245311397558396         0.03833439976202624          1.0000   
         H         H         1.0       0.0865150738695164  0.01627330377134717           0.05102099343441568          1.0000   
         H         H         1.0       0.10892497692307476           0.9712485234233598 0.5209195763293326 1.0000   
         H         H         1.0       0.10981678747841901           0.9343463415977182 0.5057635292816522 1.0000   
         H         H         1.0       0.08028409875594389           0.9527593175801173 0.4252169480622017 1.0000   
         H         H         1.0       0.06847027203140965           0.9901345397794652 0.4473231260636987 1.0000   
         H         H         1.0       0.174314251751838   0.93243192356219    0.47243954532895344          1.0000   
         H         H         1.0       0.13973773623216482           0.90943767593124   0.48007204289871724          1.0000   
         H         H         1.0       0.11355148505830438           0.9261874846995072 0.396381765832006  1.0000   
         H         H         1.0       0.1472641748816848  0.9469418128118359  0.3864949889890876 1.0000   
         H         H         1.0       0.048299837983118765          0.9227608255601039 0.4425946743838232 1.0000   
         H         H         1.0       0.02190380363624178           0.9113054077694978 0.40574200278762373          1.0000   
         H         H         1.0       0.07469079359958086           0.8604186567451977 0.37387743309976607          1.0000   
         H         H         1.0       0.10424750645713456           0.8780229669921945 0.4084146395113553 1.0000   
         H         H         1.0       0.11660838527615064           0.8661785069993095 0.4597642308307008 1.0000   
         H         H         1.0       0.110334833895311   0.8415794012871421  0.5001400980578377 1.0000   
         H         H         1.0       0.05239615099609663           0.8865003179072177 0.5309338473253453 1.0000   
         H         H         1.0       0.06124164375845953           0.9127974342159673 0.49037921173717325          1.0000   
         C         C         1.0       0.17780710401892622           0.17452250630902455          0.18272068469716607          1.0000   
         C         C         1.0       0.18787629431296543           0.19177445531674253          0.16555347933022718          1.0000   
         C         C         1.0       0.17970503134630994           0.19401160998299538          0.1384093576610589 1.0000   
         C         C         1.0       0.16319549327255195           0.17786760465535165          0.12705082016519498          1.0000   
         C         C         1.0       0.15292918858518018           0.16163824514081118          0.14568966147518442          1.0000   
         C         C         1.0       0.16100704999707055           0.15855559533533722          0.17244498524371438          1.0000   
         H         H         1.0       0.2036433692258765  0.20337979832580746           0.17088326879791882          1.0000   
         H         H         1.0       0.18532321238010746           0.2078509559634708 0.12361850267053401          1.0000   
         H         H         1.0       0.1354505300485624  0.15182489706752744           0.14184519425678116          1.0000   
         H         H         1.0       0.15263744586839417           0.1460873573072946 0.18711281428413515          1.0000   
         C         C         1.0       0.1430094185713282  0.14104219708301888           0.08405506779795004          1.0000   
         C         C         1.0       0.13679877323256373           0.1651790614263838 0.08307340636089897          1.0000   
         C         C         1.0       0.11707014748001487           0.17041205617768754          0.06540862388178126          1.0000   
         C         C         1.0       0.10091540295783608           0.15270505536759457          0.05822025249367946          1.0000   
         C         C         1.0       0.1046211205532579  0.12949111012488593           0.06583100596857738          1.0000   
         C         C         1.0       0.12629358450411354           0.1231207929517867 0.0764849823897944 1.0000   
         C         C         1.0       0.15001489390640904           0.18596291230159184          0.09783009448523737          1.0000   
         C         C         1.0       0.16586222744692872           0.1966047439256134 0.07172904237665212          1.0000   
         C         C         1.0       0.1579606611457072  0.21622589620510999           0.05566835785720037          1.0000   
         C         C         1.0       0.12861496974239836           0.19496640021413658          0.5481899159857315 1.0000   
         C         C         1.0       0.14627017638025078           0.17821200855997402          0.5516449874936165 1.0000   
         C         C         1.0       0.15359079241055554           0.17262317438633717          0.5789110276061241 1.0000   
         C         C         1.0       0.14273890596954186           0.184117443391458  0.6021751505652967 1.0000   
         C         C         1.0       0.11015032043051987           0.19457879317633284          0.1251414186727829 1.0000   
         C         C         1.0       0.09591857954556238           0.20882384636278908          0.14198765233351152          1.0000   
         C         C         1.0       0.10024390048113352           0.23290071828869652          0.14609626289467623          1.0000   
         C         C         1.0       0.11908544796839515           0.24329547899556292          0.13108493334946358          1.0000   
         C         C         1.0       0.1355089568546738  0.22878991112175523           0.11593599678594552          1.0000   
         C         C         1.0       0.1312379319381329  0.20345347098928165           0.11256873042651075          1.0000   
         C         C         1.0       0.08628691632426788           0.24751370155147742          0.16998178735193498          1.0000   
         C         C         1.0       0.021797861564941456          0.20690989545342336          0.19254593638079143          1.0000   
         C         C         1.0       0.03564175182693563           0.21558398868115297          0.2156597179447033 1.0000   
         C         C         1.0       0.05485615696152357           0.23110502614804695          0.2093186361611165 1.0000   
         C         C         1.0       0.06133949917286796           0.23681548127835453          0.18030378005167605          1.0000   
         C         C         1.0       0.045003096692055156          0.2287700173297342 0.15960939077599642          1.0000   
         C         C         1.0       0.024461392063596765          0.21507652365539245          0.16631638245381233          1.0000   
         C         C         1.0       0.07865185876855718           0.2730662596990886 0.16227902142818132          1.0000   
         C         C         1.0       0.07417390021286852           0.28058863484898866          0.13398114930980778          1.0000   
         C         C         1.0       0.06621866154828115           0.3030840366940052 0.12916509294967451          1.0000   
         C         C         1.0       0.06096888803764222           0.3189905053022086 0.15123210520852845          1.0000   
         C         C         1.0       0.06489921536485954           0.31265796838343013          0.17847502498285261          1.0000   
         C         C         1.0       0.07258392003993541           0.2896889043148049 0.18413041491164925          1.0000   
         C         C         1.0       0.12247994874906386           0.26585242476213994          0.2003078058538437 1.0000   
         C         C         1.0       0.14063927660906037           0.2632920052955781 0.22003300367866227          1.0000   
         C         C         1.0       0.14481859117253468           0.24175673534127454          0.23178781184708733          1.0000   
         C         C         1.0       0.13074254764393026           0.22231663593095813          0.22404814446320676          1.0000   
         C         C         1.0       0.11055864830698589           0.22399597652824058          0.2078651420258832 1.0000   
         C         C         1.0       0.10686800083097019           0.24562319052771492          0.1939710910894384 1.0000   
         H         H         1.0       0.15863044797042797           0.13489739544909093          0.09444092923722153          1.0000   
         H         H         1.0       0.11247941365512881           0.18724399754850632          0.05878820398279827          1.0000   
         H         H         1.0       0.03863559456821575           0.16359258537243246          0.5861494790528086 1.0000   
         H         H         1.0       0.12850118353601836           0.10434745355558062          0.08088209451445105          1.0000   
         H         H         1.0       0.14071451025432943           0.2240690217056774 0.059305679065033916         1.0000   
         H         H         1.0       0.1231502046660204  0.20021261010027241           0.5265293739548825 1.0000   
         H         H         1.0       0.1664735689145083  0.15895813996598382           0.582262904825495  1.0000   
         H         H         1.0       0.19561103357430235           0.17197273420400896          0.07592829748043783          1.0000   
         H         H         1.0       0.10479339617863026           0.17542101722889974          0.12297017749301203          1.0000   
         H         H         1.0       0.08238930529269872           0.20006367894274038          0.152625204563521  1.0000   
         H         H         1.0       0.12490569761413799           0.2615810770649089 0.13641185093316383          1.0000   
         H         H         1.0       0.15212436599359688           0.23662438785733733          0.10757538038865128          1.0000   
         H         H         1.0       0.03307433437007967           0.21002509558144566          0.23711126998833013          1.0000   
         H         H         1.0       0.06631095424147282           0.23554602858036597          0.22685846134744736          1.0000   
         H         H         1.0       0.04846342917118163           0.23069615382810146          0.13805625645453568          1.0000   
         H         H         1.0       0.014301592064970059          0.20774753573519608          0.1482372383976394 1.0000   
         H         H         1.0       0.07843599805472645           0.2686424746885789 0.11673479966807511          1.0000   
         H         H         1.0       0.06465653144842998           0.31007460507743245          0.10787964920098184          1.0000   
         H         H         1.0       0.06283523506202338           0.32436949250091496          0.19670917502896418          1.0000   
         H         H         1.0       0.0717010579898203  0.28385434379694785           0.20657638912874857          1.0000   
         H         H         1.0       0.11905706751166602           0.2835388990013136 0.19176088389057325          1.0000   
         H         H         1.0       0.15403231025476538           0.2781751046494225 0.22087049432070413          1.0000   
         H         H         1.0       0.13227159027286323           0.20583320769767333          0.23571416350285201          1.0000   
         H         H         1.0       0.10019877886754536           0.20743472644208477          0.2028561642932398 1.0000   
         C         C         1.0       0.11818692151729578           0.11780794286189807          0.3081221989545115 1.0000   
         C         C         1.0       0.11791620350452482           0.12367731275865591          0.3366306850536498 1.0000   
         C         C         1.0       0.10680958106102936           0.1441358803891721 0.3470380730698736 1.0000   
         C         C         1.0       0.09243546835847444           0.15804227302839757          0.32932470909822315          1.0000   
         C         C         1.0       0.09306280621869348           0.1517891151081319 0.30034034350957006          1.0000   
         C         C         1.0       0.10595848418358898           0.1331003888036629 0.29035944736710073          1.0000   
         H         H         1.0       0.1259467783280984  0.11227061489981743           0.3499989611743837 1.0000   
         H         H         1.0       0.10986037108373073           0.15219626996216568          0.36831404911619964          1.0000   
         H         H         1.0       0.08487577825104492           0.16445821562373292          0.28618516899510676          1.0000   
         H         H         1.0       0.10579727633045263           0.13057711195597232          0.2673986482845559 1.0000   
         C         C         1.0       0.038839898318514754          0.16125959039180313          0.32460603183237197          1.0000   
         C         C         1.0       0.052194568256414664          0.18154062512833286          0.32847095250235797          1.0000   
         C         C         1.0       0.03951646882953863           0.20271519907950666          0.32702955291631935          1.0000   
         C         C         1.0       0.01444472391705287           0.20291753903846652          0.327535483323032  1.0000   
         C         C         1.0       0.0018611755921327244         0.18128561517709232          0.32738362881343464          1.0000   
         C         C         1.0       0.014212093121711122          0.16019875202178396          0.32771969545889595          1.0000   
         C         C         1.0       0.08014393436610469           0.18223101791658183          0.33821025166525703          1.0000   
         C         C         1.0       0.09771830155773609           0.2020541108960263 0.3241866085694934 1.0000   
         C         C         1.0       0.09207532526989523           0.21397469035558014          0.29892047960090345          1.0000   
         C         C         1.0       0.10915759088533554           0.22997514127796304          0.28653054738391753          1.0000   
         C         C         1.0       0.1317721217483295  0.23053489617527867           0.2977201005031796 1.0000   
         C         C         1.0       0.13753279416877662           0.2185212946655272 0.32135682559581047          1.0000   
         C         C         1.0       0.12116894010709929           0.2037924737738567 0.3341522523079579 1.0000   
         C         C         1.0       0.06773573210078143           0.1653603791438364 0.38906130524013327          1.0000   
         C         C         1.0       0.06234303675002285           0.17164908794335446          0.416512852012976  1.0000   
         C         C         1.0       0.06683632623229707           0.1941016891376075 0.42957779247754   1.0000   
         C         C         1.0       0.07883887250037803           0.21012546297900492          0.41142147318523387          1.0000   
         C         C         1.0       0.08286420886635716           0.20628415970150485          0.3831706807783705 1.0000   
         C         C         1.0       0.0771235983110937  0.18404295456015773           0.37150049151542863          1.0000   
         C         C         1.0       0.060801549242857966          0.19854822741131892          0.46314174910132844          1.0000   
         C         C         1.0       0.9867309580695247  0.20173093757010335           0.4890427734175013 1.0000   
         C         C         1.0       0.002819527287269974          0.193566973085263  0.508936750657482  1.0000   
         C         C         1.0       0.026397186969480346          0.19101184663372076          0.5003232079096751 1.0000   
         C         C         1.0       0.03392054013333046           0.19320768740798325          0.47213278014781057          1.0000   
         C         C         1.0       0.015974599769817077          0.19816411281691274          0.4520111360479539 1.0000   
         C         C         1.0       0.9929297411093267  0.20154769599129269           0.4606327971146818 1.0000   
         C         C         1.0       0.06536290711973436           0.22607534636784365          0.4752573937385495 1.0000   
         C         C         1.0       0.057207963806515716          0.24569942610791862          0.46097145966369535          1.0000   
         C         C         1.0       0.06047825676775842           0.26931306803806776          0.47264284274065   1.0000   
         C         C         1.0       0.07259330245020346           0.27242060381709   0.4981413500274574 1.0000   
         C         C         1.0       0.0784030992203204  0.25194394433528716           0.5130931466975494 1.0000   
         C         C         1.0       0.07380349984613876           0.22956038738580015          0.502921082275773  1.0000   
         C         C         1.0       0.10384964208524083           0.1861972378481254 0.4716806203749354 1.0000   
         C         C         1.0       0.12184738323914454           0.1724642083125791 0.4798756391744769 1.0000   
         C         C         1.0       0.11658445417115057           0.15313374834130294          0.49760235879063164          1.0000   
         C         C         1.0       0.09367669317505338           0.14530145599314911          0.5019643868718537 1.0000   
         C         C         1.0       0.07584720048977013           0.15852868581125457          0.48832918846598017          1.0000   
         C         C         1.0       0.08023925288701676           0.17963433167468879          0.47532274216420733          1.0000   
         H         H         1.0       0.04731737902399291           0.14501116652059057          0.3267528990570409 1.0000   
         H         H         1.0       0.049345285173942655          0.2191203711767379 0.3275528224540899 1.0000   
         H         H         1.0       0.004739188391507332          0.21856638642173226          0.32244865291406904          1.0000   
         H         H         1.0       0.006386374505265691          0.1419680563549467 0.3264644247355987 1.0000   
         H         H         1.0       0.07379071525160263           0.21537341310552627          0.28954715932305247          1.0000   
         H         H         1.0       0.10541545930158171           0.2421766583618315 0.2687095561494826 1.0000   
         H         H         1.0       0.15474133506101753           0.219517314017213  0.330965376682412  1.0000   
         H         H         1.0       0.12643653692706455           0.1927579441665294 0.35280633474087064          1.0000   
         H         H         1.0       0.06184943546149202           0.1481278310538808 0.37949963318770363          1.0000   
         H         H         1.0       0.05545656214858674           0.15714042403509368          0.42782011332797854          1.0000   
         H         H         1.0       0.08638392575932903           0.22582539068233914          0.4214988816596075 1.0000   
         H         H         1.0       0.08751083697005989           0.22139065620679899          0.3704174340387744 1.0000   
         H         H         1.0       0.9966173712654904  0.1908737485649966  0.5304162130619495 1.0000   
         H         H         1.0       0.03951532902131194           0.18714460588881282          0.5158961242745358 1.0000   
         H         H         1.0       0.02020631069642298           0.20001323499854265          0.4291090794796676 1.0000   
         H         H         1.0       0.9801409999321319  0.20602646330263433           0.4427983734748456 1.0000   
         H         H         1.0       0.04750314706175707           0.24492390607401945          0.4412591585814647 1.0000   
         H         H         1.0       0.05369411950877656           0.28555779748963483          0.46124506011446204          1.0000   
         H         H         1.0       0.08498490122366253           0.2525168394718788 0.5335636616899578 1.0000   
         H         H         1.0       0.08068841597455312           0.21493869162395934          0.5159111174768238 1.0000   
         H         H         1.0       0.10774121943554818           0.2029553384721584 0.4618815979276321 1.0000   
         H         H         1.0       0.13901229090357725           0.1817183223167388 0.4776057058861652 1.0000   
         H         H         1.0       0.09071495913866486           0.12839500422900632          0.5127567835376479 1.0000   
         H         H         1.0       0.05810903593829852           0.15137807560152716          0.4877743379071143 1.0000   
         C         C         1.0       0.9435587088545576  0.021276690994299848         0.22430762040176705          1.0000   
         C         C         1.0       0.9561385898521879  0.01816446562175855           0.24918401675970245          1.0000   
         C         C         1.0       0.966965951618227   0.03817300323947958           0.2627405947297434 1.0000   
         C         C         1.0       0.964200641454168   0.061746194439939506         0.25250613730975263          1.0000   
         C         C         1.0       0.9507641588120791  0.06362873672195786           0.22845619841148326          1.0000   
         C         C         1.0       0.9396195002213179  0.043306975001846215         0.21521767745104242          1.0000   
         H         H         1.0       0.961252711083942   0.9991315070849273  0.2514241189776597 1.0000   
         H         H         1.0       0.9794805290429998  0.03551938343900329           0.280153494438277  1.0000   
         H         H         1.0       0.9458582086927357  0.08057644035714527           0.22039612298377761          1.0000   
         H         H         1.0       0.9290500321771603  0.0455373198388469  0.19631980882092523          1.0000   
         C         C         1.0       0.9985752931157249  0.0992312613793791  0.22424798536719706          1.0000   
         C         C         1.0       0.9879781871051493  0.10534739527687963           0.25008409287637196          1.0000   
         C         C         1.0       0.9924886761683778  0.12795561344686734           0.2613747529124158 1.0000   
         C         C         1.0       0.002973387794227511          0.1446676917771406 0.2447406020643191 1.0000   
         C         C         1.0       0.011744885450713172          0.14038002294850174          0.21775994351925546          1.0000   
         C         C         1.0       0.01103491841036397           0.1164494838164579 0.2080031823283621 1.0000   
         C         C         1.0       0.97336022038016    0.08699352528373026           0.2682001315868378 1.0000   
         C         C         1.0       0.9934122896455787  0.08276028882244199           0.29195960335919985          1.0000   
         C         C         1.0       0.9949040151903317  0.09544542882273856           0.3178673505613501 1.0000   
         C         C         1.0       0.016152075204043825          0.09443580947111431          0.333064015016401  1.0000   
         C         C         1.0       0.0353811398993531  0.0821141716166171  0.32249746185001366          1.0000   
         C         C         1.0       0.032962267966593295          0.06936507776100313          0.2972111392821544 1.0000   
         C         C         1.0       0.012819106074587028          0.06904018658052927          0.28364309809917926          1.0000   
         C         C         1.0       0.936134415852042   0.11516825519177223           0.2682537925102394 1.0000   
         C         C         1.0       0.9146835002962742  0.12302483138032717           0.2769342836253013 1.0000   
         C         C         1.0       0.9041759903567983  0.11344978584665796           0.300755829995094  1.0000   
         C         C         1.0       0.9160371179036638  0.09382955062517223           0.31349082298205994          1.0000   
         C         C         1.0       0.9363121325281808  0.08469484678804741           0.30263241339076286          1.0000   
         C         C         1.0       0.9476472533253515  0.09606246652462576           0.28089067886505376          1.0000   
         C         C         1.0       0.8816422542756581  0.1277426818054952  0.3153796964053398 1.0000   
         C         C         1.0       0.9328806554582193  0.18072440073822088           0.34987816361936985          1.0000   
         C         C         1.0       0.9181143212600928  0.1866005151651698  0.32759347729166516          1.0000   
         C         C         1.0       0.899971394451305   0.17078552320726434           0.318225508212033  1.0000   
         C         C         1.0       0.8961948212637129  0.14923840608270303           0.33095779200010855          1.0000   
         C         C         1.0       0.9093529226880329  0.14460792276201465           0.35427849907721737          1.0000   
         C         C         1.0       0.9270796755580626  0.15974136223483867           0.364844181072006  1.0000   
         C         C         1.0       0.8647645730089878  0.11195401041895305           0.3358212985682977 1.0000   
         C         C         1.0       0.8551019301165974  0.08974429410183507           0.3272646380896505 1.0000   
         C         C         1.0       0.8425631337147832  0.07526724932047034           0.3449317887934886 1.0000   
         C         C         1.0       0.8361922538642266  0.08303152862260693           0.37211138046891834          1.0000   
         C         C         1.0       0.8436645891329472  0.10611346991360288           0.37996381481348174          1.0000   
         C         C         1.0       0.8571491253776313  0.12076421034957545           0.36209287885601354          1.0000   
         C         C         1.0       0.8465412661808907  0.1536042429562895  0.30147972203380047          1.0000   
         C         C         1.0       0.8258441195510176  0.15680207419390807           0.2857680339364864 1.0000   
         C         C         1.0       0.8224776254070489  0.14358633297112142           0.26097173658451783          1.0000   
         C         C         1.0       0.8376247693020105  0.12540125502778787           0.25318010712668676          1.0000   
         C         C         1.0       0.8574646056404767  0.12096459413522886           0.26947654770474183          1.0000   
         C         C         1.0       0.8618009598243134  0.1348117045610418  0.293381455520046  1.0000   
         H         H         1.0       0.00026830019797507987        0.07977807341063058          0.21851694571270927          1.0000   
         H         H         1.0       0.9833413320313822  0.13305405429422174           0.2805341421946175 1.0000   
         H         H         1.0       0.00232852155518537           0.16283653857094096          0.24977913544728325          1.0000   
         H         H         1.0       0.018139014836179745          0.10997895696372847          0.1868399021103384 1.0000   
         H         H         1.0       0.9804106714970032  0.10780210443817856           0.32337927638546315          1.0000   
         H         H         1.0       0.020744703737138437          0.10542888235033368          0.35090303119533683          1.0000   
         H         H         1.0       0.04908566328567976           0.06122143145624893          0.28894635087273546          1.0000   
         H         H         1.0       0.013421657580915403          0.06243617347116628          0.2621277143645384 1.0000   
         H         H         1.0       0.945524854215876   0.12547513856326176           0.2515193954923094 1.0000   
         H         H         1.0       0.9094811636499983  0.14041443134927878           0.27076937134603557          1.0000   
         H         H         1.0       0.9066937085148244  0.0841395069928653  0.3293520500471747 1.0000   
         H         H         1.0       0.9451308995167418  0.07008890849134093           0.31388611173275777          1.0000   
         H         H         1.0       0.923513261396863   0.2024408007160783  0.31611398904402793          1.0000   
         H         H         1.0       0.8904060025624754  0.17667560469787416           0.30011325022810637          1.0000   
         H         H         1.0       0.9057731963950612  0.12705868540655418           0.36415212922772544          1.0000   
         H         H         1.0       0.9379119155444144  0.15424043754568378           0.3830273494236645 1.0000   
         H         H         1.0       0.857559117002928   0.07847627244132006           0.3090715965184625 1.0000   
         H         H         1.0       0.8383778570617411  0.05643581213059212           0.3376846004926434 1.0000   
         H         H         1.0       0.8411369167676085  0.1109326859591187  0.4025250630117162 1.0000   
         H         H         1.0       0.8652895632769639  0.13817630156233052           0.3694536460041868 1.0000   
         H         H         1.0       0.8498370617099689  0.16670338713821994           0.3187806861993308 1.0000   
         H         H         1.0       0.814497308826592   0.1732888746926767  0.2908575748223218 1.0000   
         H         H         1.0       0.8359514487868638  0.11676954707296514           0.23281309263331595          1.0000   
         H         H         1.0       0.8686090175854677  0.10759349525285429           0.2615785689494711 1.0000   
         C         C         1.0       0.8726372028445558  0.06220002425466885           0.4198187607696003 1.0000   
         C         C         1.0       0.8928015156214031  0.04832799087476957           0.4222958891222051 1.0000   
         C         C         1.0       0.9130290589824775  0.05760745209089313           0.43555773508645623          1.0000   
         C         C         1.0       0.9138793761800392  0.08110161349353408           0.44610997946316755          1.0000   
         C         C         1.0       0.8921989617471561  0.093439808325887   0.44656456980486536          1.0000   
         C         C         1.0       0.8717631118491698  0.08458919356597076           0.434221374347105  1.0000   
         H         H         1.0       0.8938777378678141  0.031307446257870186         0.41263625829581885          1.0000   
         H         H         1.0       0.929003779036692   0.04633629442343756           0.43583742784788293          1.0000   
         H         H         1.0       0.8903255232233537  0.10888274812678088           0.4593583413962719 1.0000   
         H         H         1.0       0.8553712238111771  0.09318834391923599           0.44016094493923097          1.0000   
         C         C         1.0       0.9326936830039444  0.13439496299160658           0.44879801005459924          1.0000   
         C         C         1.0       0.9382659389773823  0.11891364143454458           0.4711866401334575 1.0000   
         C         C         1.0       0.9469110787505784  0.12848110734998008           0.4960641000467593 1.0000   
         C         C         1.0       0.9463907037316246  0.15281621835405057           0.5011074985498359 1.0000   
         C         C         1.0       0.939168309192494   0.1683846371459276  0.48031383965556845          1.0000   
         C         C         1.0       0.9323479193087308  0.1587534913338033  0.45390301785693504          1.0000   
         C         C         1.0       0.9355739471262879  0.09036877795794585           0.4658783894270811 1.0000   
         C         C         1.0       0.9619085675506176  0.08615426239304172           0.4520040553947392 1.0000   
         C         C         1.0       0.9813025694018389  0.08957821144467552           0.47042576861707813          1.0000   
         C         C         1.0       0.0036940743867626136         0.09201309048232903          0.4610364637837204 1.0000   
         C         C         1.0       0.008962846833526772          0.09089859063900207          0.433421281813885  1.0000   
         C         C         1.0       0.9902263491240597  0.08658386076799274           0.414206993353897  1.0000   
         C         C         1.0       0.9677191258177624  0.08462719053146123           0.42364819959379707          1.0000   
         C         C         1.0       0.9157564763106536  0.08708403597628782           0.5140909684030369 1.0000   
         C         C         1.0       0.9195652702427899  0.08347232137336978           0.5432726114960362 1.0000   
         C         C         1.0       0.9387300970455529  0.06935246570832752           0.5526400365759583 1.0000   
         C         C         1.0       0.9463050718974569  0.05194828842220067           0.5332819106217642 1.0000   
         C         C         1.0       0.9448828982468116  0.057956137624362025         0.5037698443403258 1.0000   
         C         C         1.0       0.9307662350960098  0.07747724930917035           0.4950219078069491 1.0000   
         C         C         1.0       0.9741596640988355  0.07380420673875936           0.11472231251378073          1.0000   
         C         C         1.0       0.04643805461592132           0.1042693200026631 0.1010526581808649 1.0000   
         C         C         1.0       0.02755653690431159           0.11919532634470116          0.10400094047008926          1.0000   
         C         C         1.0       0.004683040365711655          0.10944391775789675          0.11022868298689711          1.0000   
         C         C         1.0       5.291638123439135e-05         0.0847704534475917 0.11324219638258404          1.0000   
         C         C         1.0       0.019972792972077658          0.0697837206657783 0.10866959236496614          1.0000   
         C         C         1.0       0.04275926689331677           0.0797130687452385 0.10360207074730404          1.0000   
         C         C         1.0       0.9712178004674396  0.04835397335188162           0.12839810351960634          1.0000   
         C         C         1.0       0.9512808814193294  0.03528329182652933           0.12023046501741781          1.0000   
         C         C         1.0       0.9448342767966608  0.015883467866209866         0.13587726581035353          1.0000   
         C         C         1.0       0.9571581217976677  0.009909553352708933         0.16058288291472686          1.0000   
         C         C         1.0       0.9787453059963599  0.022939979420619316         0.16699383913201232          1.0000   
         C         C         1.0       0.9836604180561916  0.04270733767982237           0.15323939832311623          1.0000   
         C         C         1.0       0.9653426361561441  0.10113558040381185           0.159339505389276  1.0000   
         C         C         1.0       0.9505479534040253  0.11557303731165762           0.1770011366256899 1.0000   
         C         C         1.0       0.9265673903360439  0.11269024841410945           0.17484883073748347          1.0000   
         C         C         1.0       0.9118573702743185  0.1021274130771646  0.6345480901707491 1.0000   
         C         C         1.0       0.922034711794654   0.08967966725384872           0.6118775096299279 1.0000   
         C         C         1.0       0.9559639259144455  0.08954183825648927           0.13619572846209074          1.0000   
         H         H         1.0       0.9272298241029668  0.12797239785800207           0.42757172099263613          1.0000   
         H         H         1.0       0.9521236403202491  0.11504304079543612           0.5118235165249345 1.0000   
         H         H         1.0       0.9498814956833548  0.15983786010961676           0.5218240453492857 1.0000   
         H         H         1.0       0.929254090903006   0.16967222239339724           0.4355978221161619 1.0000   
         H         H         1.0       0.9792454014484548  0.09231646890116703           0.49287360437574473          1.0000   
         H         H         1.0       0.01753469396999452           0.09710893729107235          0.47635254538496613          1.0000   
         H         H         1.0       0.9951664060557955  0.08628638295770275           0.3919043816909272 1.0000   
         H         H         1.0       0.9517649640811305  0.08471410674892838           0.4085985105002777 1.0000   
         H         H         1.0       0.9061376634187595  0.1027570122619847  0.5086873134084096 1.0000   
         H         H         1.0       0.9091933312913459  0.0941150570528344  0.5572758910921211 1.0000   
         H         H         1.0       0.9579914185238778  0.038732170774013586         0.5408028138634935 1.0000   
         H         H         1.0       0.9529700152050115  0.04738061630722279           0.4886994113042985 1.0000   
         H         H         1.0       0.030261519899572376          0.13818687176081546          0.10397022873294291          1.0000   
         H         H         1.0       0.9892329018266124  0.12133369776015589           0.11192841150084036          1.0000   
         H         H         1.0       0.017435069856225116          0.04998132112357467          0.10688977374897098          1.0000   
         H         H         1.0       0.05656158116905252           0.06745375179789254          0.09644377388032246          1.0000   
         H         H         1.0       0.9393497249207674  0.040755520501409175         0.10328959823170428          1.0000   
         H         H         1.0       0.9288389578612573  0.005331854233223021         0.12916229398495613          1.0000   
         H         H         1.0       0.9877327425333475  0.02069980908974811           0.18746843922152334          1.0000   
         H         H         1.0       0.9966854397205338  0.05504268260050237           0.16133616784913113          1.0000   
         H         H         1.0       0.9845165005420179  0.100366525910533   0.16438348135003197          1.0000   
         H         H         1.0       0.9595962084513436  0.12648305349238384           0.1939149846653426 1.0000   
         H         H         1.0       0.8973861872368629  0.09398332863473428           0.645208744838901  1.0000   
         H         H         1.0       0.9134135525683497  0.0746140292319179  0.6000309086293496 1.0000   
         C         C         1.0       0.6309901859683441  0.5189882864364168  0.1842823719609603 1.0000   
         C         C         1.0       0.6207149849414187  0.4967962209528839  0.17951160522933232          1.0000   
         C         C         1.0       0.6333062112255696  0.4776117871142792  0.1700185473010588 1.0000   
         C         C         1.0       0.6574563894686871  0.48122917124194997           0.16098213943031758          1.0000   
         C         C         1.0       0.6678433819424688  0.5040466583084678  0.16524740341927946          1.0000   
         C         C         1.0       0.6553500638946025  0.5221618334924363  0.17864121558152465          1.0000   
         H         H         1.0       0.6018496914550606  0.4919446779879103  0.184813111594302  1.0000   
         H         H         1.0       0.6251875638646153  0.46025811362506336           0.16709965409714173          1.0000   
         H         H         1.0       0.6860072702021113  0.5056610992971129  0.16018588854291357          1.0000   
         H         H         1.0       0.6637323753424929  0.5397428678810767  0.18281267335774137          1.0000   
         C         C         1.0       0.6960462040301866  0.486475942356331   0.11273523773068628          1.0000   
         C         C         1.0       0.696170608803048   0.4652034883874523  0.12760106439487376          1.0000   
         C         C         1.0       0.7176476526898549  0.4519368930935262  0.1279543487343244 1.0000   
         C         C         1.0       0.738284902615079   0.46126180426814745           0.11778158863493494          1.0000   
         C         C         1.0       0.7382337165948148  0.4829767826537918  0.1051096353823808 1.0000   
         C         C         1.0       0.6484928342847559  0.5865069491095077  0.617158447003112  1.0000   
         C         C         1.0       0.6741868979049205  0.45935903682657975           0.1475926325765221 1.0000   
         C         C         1.0       0.6605011291069269  0.4413531012915744  0.12848781182087085          1.0000   
         C         C         1.0       0.667572512089956   0.4169738059030802  0.12757581383995614          1.0000   
         C         C         1.0       0.5762736401441519  0.5036239874985923  0.5778236358219115 1.0000   
         C         C         1.0       0.5577396338634345  0.5180645969149349  0.5676674794892876 1.0000   
         C         C         1.0       0.5547968217704928  0.5410661833088043  0.5794344036632124 1.0000   
         C         C         1.0       0.5678020267865499  0.5485306011977162  0.6022416583422077 1.0000   
         C         C         1.0       0.6992326926401492  0.46362955374779274           0.1947043053400769 1.0000   
         C         C         1.0       0.7024983091767373  0.4597875011312516  0.22259253704568668          1.0000   
         C         C         1.0       0.6909080233917463  0.4406770480505347  0.23583052985761963          1.0000   
         C         C         1.0       0.6785642203495522  0.424275394459147   0.21920415406795357          1.0000   
         C         C         1.0       0.6725368790352594  0.43122014096104255           0.19234959725535833          1.0000   
         C         C         1.0       0.6830351604011194  0.4496793223871425  0.17767208341956597          1.0000   
         C         C         1.0       0.6907536587700166  0.44035355923476327           0.2702022212072641 1.0000   
         C         C         1.0       0.733764026613539   0.5001399566270041  0.3048254149729004 1.0000   
         C         C         1.0       0.711762652112422   0.4959083152345312  0.3166890227502191 1.0000   
         C         C         1.0       0.6979089671227711  0.4761589628692727  0.3083229729531057 1.0000   
         C         C         1.0       0.7065321559096066  0.45991771015551025           0.2873967668516299 1.0000   
         C         C         1.0       0.730866271071595   0.4627342793764045  0.27902544528561984          1.0000   
         C         C         1.0       0.743400355042893   0.48304679409900503           0.2857067669762979 1.0000   
         C         C         1.0       0.6987031364647439  0.4158020068328283  0.2849594024405251 1.0000   
         C         C         1.0       0.7141301337889334  0.39994757760724586           0.27258977754327135          1.0000   
         C         C         1.0       0.7208754206324122  0.37938440477045354           0.2865610014062855 1.0000   
         C         C         1.0       0.7124200404343676  0.3751081988201752  0.3144867187448078 1.0000   
         C         C         1.0       0.6948872829733767  0.39015411617170825           0.3244864716013851 1.0000   
         C         C         1.0       0.6906110187889744  0.41173044762427513           0.31139242644025206          1.0000   
         C         C         1.0       0.644167632163617   0.42953885329769104           0.2770467981210072 1.0000   
         C         C         1.0       0.620958835576221   0.4345665985693887  0.27042191150183886          1.0000   
         C         C         1.0       0.6145034869455094  0.4564676965337721  0.25949347295971653          1.0000   
         C         C         1.0       0.6313823985951741  0.4744962226223006  0.2551246283482343 1.0000   
         C         C         1.0       0.6548457088645404  0.4692055992164964  0.2647143853963555 1.0000   
         C         C         1.0       0.6627516368929298  0.44556208557590105           0.2716683425545208 1.0000   
         H         H         1.0       0.6785280729099221  0.49481410868980386           0.10947721434404221          1.0000   
         H         H         1.0       0.7166356046046732  0.4349054500692109  0.140111216580696  1.0000   
         H         H         1.0       0.7549191978536769  0.450326101547547   0.11933923714054928          1.0000   
         H         H         1.0       0.6519489380544662  0.6045713089959431  0.6104386416673914 1.0000   
         H         H         1.0       0.6833384852086027  0.4109149093032837  0.13930612569946507          1.0000   
         H         H         1.0       0.5798894683338078  0.48580091862429764           0.5684307182016957 1.0000   
         H         H         1.0       0.5442535897411693  0.5534395261290933  0.5676249142986362 1.0000   
         H         H         1.0       0.5627455771677524  0.5656106483202634  0.6136892575021614 1.0000   
         H         H         1.0       0.7081694385366957  0.47811359798163894           0.1845180924906428 1.0000   
         H         H         1.0       0.7138689405083083  0.47375362573815016           0.23385009532230486          1.0000   
         H         H         1.0       0.6679467546468973  0.41102238423783644           0.22750342422726938          1.0000   
         H         H         1.0       0.6578922969570835  0.42164977629159534           0.18289468785768004          1.0000   
         H         H         1.0       0.7054205889766114  0.5084057072708487  0.33276619064235635          1.0000   
         H         H         1.0       0.6797734891591084  0.47437101222812367           0.31440200617950254          1.0000   
         H         H         1.0       0.7382320658477026  0.44990972446842437           0.2625789418315045 1.0000   
         H         H         1.0       0.761386052165673   0.4860904015752476  0.27780679627320587          1.0000   
         H         H         1.0       0.7214880331663375  0.40235792949937    0.2519550348157313 1.0000   
         H         H         1.0       0.7326992467936612  0.3662710272623827  0.27626028164199656          1.0000   
         H         H         1.0       0.6850907690333375  0.38771407095053373           0.344254095517299  1.0000   
         H         H         1.0       0.6810321342966096  0.42601675413762696           0.32168473062588365          1.0000   
         H         H         1.0       0.648632033855514   0.41122061098637963           0.2799930713273216 1.0000   
         H         H         1.0       0.6065072029930152  0.4217540335523921  0.2707114019065716 1.0000   
         H         H         1.0       0.6284970097896243  0.49217811929201144           0.24631016161766534          1.0000   
         H         H         1.0       0.6652982712475164  0.4861197826207067  0.2619427305202305 1.0000   
         C         C         1.0       0.5690301976070643  0.5617602816753795  0.43320185333345107          1.0000   
         C         C         1.0       0.5677441297686735  0.5384759964539875  0.4216132536424888 1.0000   
         C         C         1.0       0.5844751011331992  0.5316732071209559  0.40201344527737787          1.0000   
         C         C         1.0       0.6025988724103962  0.5470783417480962  0.39289080597312914          1.0000   
         C         C         1.0       0.6032530705708629  0.5702413605423846  0.40489418051189385          1.0000   
         C         C         1.0       0.5864740970669946  0.5764632541866052  0.42509663258756186          1.0000   
         H         H         1.0       0.5507169453243744  0.5286301556537654  0.4249402255938398 1.0000   
         H         H         1.0       0.5828155446413249  0.5144209916415045  0.3922928498230012 1.0000   
         H         H         1.0       0.6156901485772003  0.5835898546470035  0.39857939871660486          1.0000   
         H         H         1.0       0.5850901030289665  0.5948613747176972  0.4328009115267434 1.0000   
         C         C         1.0       0.6245951115851435  0.5779503334925609  0.3445370117332767 1.0000   
         C         C         1.0       0.6361594465986922  0.5565669917462306  0.3530002843604125 1.0000   
         C         C         1.0       0.6609011881300568  0.5537877913155531  0.34682452785922563          1.0000   
         C         C         1.0       0.6738823786694119  0.5716643617340297  0.3341866736118284 1.0000   
         C         C         1.0       0.6621844825425081  0.5936751874814843  0.3292526701658229 1.0000   
         C         C         1.0       0.637714480320474   0.5963063333792916  0.33385679932409573          1.0000   
         C         C         1.0       0.6228167017117328  0.5367703297346019  0.3710516488816391 1.0000   
         C         C         1.0       0.6122001416669401  0.5187589843499746  0.3496359778736068 1.0000   
         C         C         1.0       0.623294381653259   0.4977302451528158  0.3411926561406731 1.0000   
         C         C         1.0       0.6122217215848234  0.48154245988850136           0.3242023445629332 1.0000   
         C         C         1.0       0.5916313021298371  0.4864889273601443  0.30965331808271135          1.0000   
         C         C         1.0       0.582234407156788   0.5090714475779728  0.31511169218908713          1.0000   
         C         C         1.0       0.5906886825319225  0.5235229365687109  0.3359805133584799 1.0000   
         C         C         1.0       0.6535652511150394  0.5421807424642289  0.4132222391619388 1.0000   
         C         C         1.0       0.6595890972875575  0.5368449791754709  0.44082248741580204          1.0000   
         C         C         1.0       0.6546891879322593  0.5142724584859241  0.4519488979650043 1.0000   
         C         C         1.0       0.6451910956075627  0.4975420204317903  0.43419735847866486          1.0000   
         C         C         1.0       0.6370163966935127  0.5039506843417279  0.4080094366485115 1.0000   
         C         C         1.0       0.6395289503445908  0.5268320586401889  0.39637707897680513          1.0000   
         C         C         1.0       0.6523312340283882  0.5120300038538895  0.4863537544038722 1.0000   
         C         C         1.0       0.6921621694791595  0.5705354265886027  0.5227532933088651 1.0000   
         C         C         1.0       0.672738724768451   0.562390159563836   0.5377289981524098 1.0000   
         C         C         1.0       0.660686190589757   0.5418047776618147  0.5280685112398109 1.0000   
         C         C         1.0       0.6697728278258316  0.5292427394352704  0.5041385872412447 1.0000   
         C         C         1.0       0.6924206120702067  0.5346982835286871  0.4945030791992036 1.0000   
         C         C         1.0       0.7031636255070507  0.5562785713792956  0.503818835492044  1.0000   
         C         C         1.0       0.6599518794589813  0.4860719832281735  0.49810356387691607          1.0000   
         C         C         1.0       0.6759363248000839  0.47008964164674955           0.4834117135407803 1.0000   
         C         C         1.0       0.6760277879494997  0.4458092095727916  0.48841431446334077          1.0000   
         C         C         1.0       0.6607075251027409  0.4368484647068599  0.5088679524611621 1.0000   
         C         C         1.0       0.6481256339177627  0.451904209737393   0.5264667292373367 1.0000   
         C         C         1.0       0.6497514677002708  0.47621719751795066           0.5223752386061064 1.0000   
         C         C         1.0       0.6075363649604025  0.4945612697091956  0.48506371783050867          1.0000   
         C         C         1.0       0.5832132614160407  0.49768347474564345           0.48987252656879315          1.0000   
         C         C         1.0       0.5744046113537395  0.519850358050445   0.501260646800972  1.0000   
         C         C         1.0       0.5889965942871014  0.5389584379441499  0.499373142911015  1.0000   
         C         C         1.0       0.6131943170704682  0.5361261707058064  0.4927048401115082 1.0000   
         C         C         1.0       0.6237903088163181  0.5133243398977265  0.48904261839275115          1.0000   
         H         H         1.0       0.606731291102575   0.5824399726593215  0.3489120230576471 1.0000   
         H         H         1.0       0.6698789613272348  0.5368972039241264  0.35007329741533666          1.0000   
         H         H         1.0       0.6928684322174966  0.5684676335394532  0.3316781248157301 1.0000   
         H         H         1.0       0.629755588048548   0.6138454952778865  0.3334361670861024 1.0000   
         H         H         1.0       0.6398314048595404  0.4934062593579662  0.34977366865657   1.0000   
         H         H         1.0       0.6229036478523687  0.4650208050410617  0.3206890808246068 1.0000   
         H         H         1.0       0.5636956684387542  0.513299161076768   0.30871703923068344          1.0000   
         H         H         1.0       0.5825551716983656  0.5414647607057717  0.3405021593961017 1.0000   
         H         H         1.0       0.6558831232710531  0.5614292440288959  0.40934929003353077          1.0000   
         H         H         1.0       0.6656744468479928  0.5531604140746691  0.4528830311447256 1.0000   
         H         H         1.0       0.6382577547989663  0.4808871424029716  0.4423960544731782 1.0000   
         H         H         1.0       0.6271815221022051  0.48914629606686066           0.3979003748803886 1.0000   
         H         H         1.0       0.6649832398556863  0.5727721531050346  0.5546496320031884 1.0000   
         H         H         1.0       0.6444719407003867  0.5355023231594225  0.5372090369926534 1.0000   
         H         H         1.0       0.6998303024780335  0.5240284344514591  0.4771837592821805 1.0000   
         H         H         1.0       0.7196657766539748  0.5625759942831968  0.49393565705720943          1.0000   
         H         H         1.0       0.6847701235182228  0.47561460760141483           0.4647126802065793 1.0000   
         H         H         1.0       0.6827939474840393  0.43318139642519204           0.4730889744859011 1.0000   
         H         H         1.0       0.638160387405762   0.4447393038366772  0.5447287200816278 1.0000   
         H         H         1.0       0.6397420834019587  0.48734000106945424           0.5380032407054511 1.0000   
         H         H         1.0       0.6130685241907646  0.47609675711031385           0.48081753469147953          1.0000   
         H         H         1.0       0.5730518521287751  0.4801776930278658  0.4895121974164999 1.0000   
         H         H         1.0       0.5844578155014357  0.5564040246913295  0.5080051620804914 1.0000   
         H         H         1.0       0.622708668434254   0.5529187181277736  0.4922783193239675 1.0000   
         C         C         1.0       0.8368525819674916  0.6506535553849231  0.2320084054404418 1.0000   
         C         C         1.0       0.8188932242607408  0.6688699528217229  0.2304394299515337 1.0000   
         C         C         1.0       0.797325015481097   0.6668651566258276  0.2449297648057277 1.0000   
         C         C         1.0       0.7918995466859643  0.6459344162796141  0.2608003508334163 1.0000   
         C         C         1.0       0.8098452806525005  0.6281354797730755  0.261927268593216  1.0000   
         C         C         1.0       0.8311326443113083  0.6308663218295872  0.24875936924145492          1.0000   
         H         H         1.0       0.8202322203585406  0.6859095731124853  0.21865916560801316          1.0000   
         H         H         1.0       0.7865057478656138  0.681885185150357   0.24318466105671233          1.0000   
         H         H         1.0       0.8068324797987825  0.6134042977400934  0.27573355470819577          1.0000   
         H         H         1.0       0.844453704794558   0.6162889664788785  0.24864685814466148          1.0000   
         C         C         1.0       0.7614403430970405  0.5984088468361162  0.2606530913297489 1.0000   
         C         C         1.0       0.7598381635841     0.6148723728873441  0.2834039214195275 1.0000   
         C         C         1.0       0.747447381917809   0.6080472480701761  0.30708574801904137          1.0000   
         C         C         1.0       0.7409705499082511  0.5839818434924257  0.310754951932467  1.0000   
         C         C         1.0       0.743695461154697   0.567143092624444   0.2884369962523632 1.0000   
         C         C         1.0       0.7540355726412414  0.5746284310852776  0.26313558868826425          1.0000   
         C         C         1.0       0.7685890601387622  0.6433659849051939  0.28014376528244733          1.0000   
         C         C         1.0       0.7456106027958578  0.6559421980651474  0.26768658785315275          1.0000   
         C         C         1.0       0.72802619224003    0.6659465234262816  0.28531083804982205          1.0000   
         C         C         1.0       0.7057450012135743  0.6728723496590757  0.2757484024750512 1.0000   
         C         C         1.0       0.7006917932881355  0.6700654009594833  0.24692758083560234          1.0000   
         C         C         1.0       0.7175080315242236  0.6608724088244033  0.22821451728722578          1.0000   
         C         C         1.0       0.7391080692638934  0.6516351028273931  0.2385981762185505 1.0000   
         C         C         1.0       0.7918310485489236  0.6419384197098341  0.3280781386366568 1.0000   
         C         C         1.0       0.7936091192357164  0.6494913510763409  0.355318133695123  1.0000   
         C         C         1.0       0.781516306661964   0.6691011097324064  0.3656444572552113 1.0000   
         C         C         1.0       0.7754303788080859  0.6861053434039193  0.3454381833818577 1.0000   
         C         C         1.0       0.7757727227180399  0.6794908453237256  0.3172760532396123 1.0000   
         C         C         1.0       0.7789981255560633  0.6548392923089523  0.30856527582884785          1.0000   
         C         C         1.0       0.7692745519919184  0.6726412253032759  0.39589761628014264          1.0000   
         C         C         1.0       0.7011156540501252  0.6440923687526678  0.3633275139579465 1.0000   
         C         C         1.0       0.7176422978064851  0.6291221261822756  0.37310709797499003          1.0000   
         C         C         1.0       0.7387535359307807  0.6374486554770978  0.38685063421286675          1.0000   
         C         C         1.0       0.7432976342407147  0.6619750367510842  0.3882708398838339 1.0000   
         C         C         1.0       0.7253745936570876  0.6769838043981926  0.3773929341403667 1.0000   
         C         C         1.0       0.7047199834822905  0.6677153030035579  0.36707234568983627          1.0000   
         C         C         1.0       0.7681908923062936  0.6990212629573034  0.4094805884746164 1.0000   
         C         C         1.0       0.7871540956260343  0.7151534033788111  0.40350980370934403          1.0000   
         C         C         1.0       0.7889596811611908  0.7375756443088778  0.41899798992578957          1.0000   
         C         C         1.0       0.7723041553082776  0.7427397853475333  0.43914594061004936          1.0000   
         C         C         1.0       0.7550950816158684  0.7263140276397172  0.44577337211252027          1.0000   
         C         C         1.0       0.7524904464701245  0.7048700263109893  0.4302358163224302 1.0000   
         C         C         1.0       0.7702386000022144  0.648674753416566   0.44221107514266234          1.0000   
         C         C         1.0       0.7824562316237563  0.6364667074547211  0.4614358904612644 1.0000   
         C         C         1.0       0.807199678994109   0.6336421994830109  0.46078885778352807          1.0000   
         C         C         1.0       0.8197473388091443  0.6478844584840454  0.44116011600435906          1.0000   
         C         C         1.0       0.8079219970525269  0.6607303936267672  0.4207203797944799 1.0000   
         C         C         1.0       0.7831794276702833  0.6591017098231406  0.4193846976690574 1.0000   
         H         H         1.0       0.7682861489107877  0.6056701674081435  0.24122158920190578          1.0000   
         H         H         1.0       0.7419418391388055  0.6209985041260726  0.3240597082010278 1.0000   
         H         H         1.0       0.729857147336072   0.5784653094703331  0.32855691651626545          1.0000   
         H         H         1.0       0.7545903125123298  0.5619218846749948  0.24562035407622507          1.0000   
         H         H         1.0       0.73016200887608    0.6671370851301176  0.30802861520360714          1.0000   
         H         H         1.0       0.6927964744775024  0.6805200714996945  0.2914957080873633 1.0000   
         H         H         1.0       0.7132457111701083  0.6562158576939131  0.20684157640190992          1.0000   
         H         H         1.0       0.751761843185122   0.6422996944291429  0.2246764343401063 1.0000   
         H         H         1.0       0.7960504072708503  0.6238290823605827  0.3189388330219976 1.0000   
         H         H         1.0       0.8028564068856645  0.6372433434997472  0.367903247854122  1.0000   
         H         H         1.0       0.7713320968750489  0.7045669188668263  0.35284419992448857          1.0000   
         H         H         1.0       0.7721028904163358  0.6925328185367396  0.30117652170679843          1.0000   
         H         H         1.0       0.712989605001152   0.6098891211647378  0.3730212593151568 1.0000   
         H         H         1.0       0.753165816050144   0.6262563534773116  0.39192277061443365          1.0000   
         H         H         1.0       0.726981260052164   0.6966446062140642  0.3798074298003609 1.0000   
         H         H         1.0       0.6895700443564408  0.6801955401142444  0.3622413092475256 1.0000   
         H         H         1.0       0.8006028854595562  0.7125072864257576  0.38813562178093886          1.0000   
         H         H         1.0       0.8040558230781853  0.7497954120446955  0.4150439043175796 1.0000   
         H         H         1.0       0.7435741544596328  0.7321504810853114  0.46211833091461973          1.0000   
         H         H         1.0       0.7382773730065415  0.6936803349299797  0.43815979176354763          1.0000   
         H         H         1.0       0.7510382244513063  0.6495634766020757  0.4446078413230393 1.0000   
         H         H         1.0       0.7740664132483106  0.6282360416337808  0.47968984232641654          1.0000   
         H         H         1.0       0.8391024290781904  0.6480384128426189  0.44305074549045464          1.0000   
         H         H         1.0       0.8188663507263922  0.6715055140627798  0.40671700270500877          1.0000   
         C         C         1.0       0.7636338797279241  0.7567434944609228  0.5050162833435038 1.0000   
         C         C         1.0       0.778193156832289   0.7434576206808928  0.5219205523142856 1.0000   
         C         C         1.0       0.7685848500045024  0.7255992268666199  0.5398579707321172 1.0000   
         C         C         1.0       0.7430043801364169  0.7228048943986093  0.5414401348000144 1.0000   
         C         C         1.0       0.7289820869606687  0.7390967438126832  0.5263143214949102 1.0000   
         C         C         1.0       0.7390223365882117  0.7557470205138904  0.5075072639642259 1.0000   
         H         H         1.0       0.797514853921183   0.7449324349843591  0.5181388020568803 1.0000   
         H         H         1.0       0.7783511746804238  0.7159279210167637  0.5548521195989237 1.0000   
         H         H         1.0       0.7108521595383456  0.737887084191047   0.5242762760319707 1.0000   
         H         H         1.0       0.7278543999051525  0.766947826400688   0.4943458405810943 1.0000   
         C         C         1.0       0.7125567033713663  0.6797070292230033  0.5201278167751272 1.0000   
         C         C         1.0       0.7114194358019594  0.6851187965064025  0.5491012853197942 1.0000   
         C         C         1.0       0.6991980739533162  0.6679933481607435  0.5655669969742225 1.0000   
         C         C         1.0       0.689326760873115   0.6471096086513883  0.5549132039788569 1.0000   
         C         C         1.0       0.6940670152993527  0.6411069900373182  0.5260420233481098 1.0000   
         C         C         1.0       0.7040754124496629  0.6580899923505237  0.5086563658801208 1.0000   
         C         C         1.0       0.7303634065058898  0.7039846826292451  0.563388447111286  1.0000   
         C         C         1.0       0.7161549157958347  0.7193933039821617  0.5864211999547049 1.0000   
         C         C         1.0       0.6912750694095794  0.7230839309088286  0.5870468887352593 1.0000   
         C         C         1.0       0.6805287132843192  0.7373615700793166  0.6074668956206605 1.0000   
         C         C         1.0       0.6938889364979272  0.7481737145492876  0.6289864129424316 1.0000   
         C         C         1.0       0.7182764819887943  0.7458687002965094  0.6277642352166701 1.0000   
         C         C         1.0       0.7298266132340697  0.7320781479529889  0.6070046898016338 1.0000   
         C         C         1.0       0.7625011535337133  0.6718821772518421  0.5560664426398608 1.0000   
         C         C         1.0       0.7794454614636421  0.654608655564633   0.565757508378276  1.0000   
         C         C         1.0       0.783578268319556   0.6512380675004905  0.5933142876173843 1.0000   
         C         C         1.0       0.770270557559596   0.6649223349541848  0.6124499383818447 1.0000   
         C         C         1.0       0.7540208633673194  0.6801647776338053  0.6034978957588196 1.0000   
         C         C         1.0       0.7498612879845163  0.6847915062963926  0.5758677414094396 1.0000   
         C         C         1.0       0.8052987860064511  0.6040052171361069  0.09933954814123445          1.0000   
         C         C         1.0       0.7888225350618185  0.5263446548845934  0.11150134290230287          1.0000   
         C         C         1.0       0.80264004555406    0.5333065483626145  0.08892480228791505          1.0000   
         C         C         1.0       0.809587318630667   0.5567605684391982  0.08500878992583606          1.0000   
         C         C         1.0       0.8045607196738044  0.5751975522657292  0.10526685139843822          1.0000   
         C         C         1.0       0.7933644213234592  0.5675184885246065  0.12922835829417534          1.0000   
         C         C         1.0       0.7830268102200193  0.5443439071295983  0.1311587170194989 1.0000   
         C         C         1.0       0.8180232375099323  0.6173085620958046  0.1251845704649043 1.0000   
         C         C         1.0       0.8165493061612789  0.6427309160536752  0.1288344995297101 1.0000   
         C         C         1.0       0.82852662460105    0.6545705648183173  0.1509612835331276 1.0000   
         C         C         1.0       0.8456897909055668  0.6426444408971412  0.1649177595877389 1.0000   
         C         C         1.0       0.8501024692012243  0.6185485637201041  0.1596302219091436 1.0000   
         C         C         1.0       0.8361406810615024  0.6063241392582852  0.14154839529485153          1.0000   
         C         C         1.0       0.8425395487857178  0.6040482466865864  0.06534877811168127          1.0000   
         C         C         1.0       0.8567616848193899  0.6134768850839347  0.04503926523176194          1.0000   
         C         C         1.0       0.8590911217011638  0.6033185794599415  0.5519091695544912 1.0000   
         C         C         1.0       0.8541251743579859  0.6277051449469442  0.5536148971808872 1.0000   
         C         C         1.0       0.8351048905084065  0.635477189832711   0.5705712629568553 1.0000   
         C         C         1.0       0.8208468857589905  0.6133046348780451  0.07213411196479402          1.0000   
         H         H         1.0       0.7237847716658907  0.6904571369049041  0.5067826160808877 1.0000   
         H         H         1.0       0.7012551313032015  0.6706567900056835  0.5888794608315333 1.0000   
         H         H         1.0       0.6802311847010284  0.6362184652483113  0.5687866097474064 1.0000   
         H         H         1.0       0.7094356319542209  0.6536039323619294  0.4868411240900278 1.0000   
         H         H         1.0       0.6793294190894448  0.7165728860556659  0.5713650056227907 1.0000   
         H         H         1.0       0.6607419494104372  0.73959390721491    0.6028353160462109 1.0000   
         H         H         1.0       0.7279044261513641  0.7522986380801027  0.6459750391680472 1.0000   
         H         H         1.0       0.7492831116271754  0.7315692491246247  0.6061300645217753 1.0000   
         H         H         1.0       0.7632734454058614  0.6757994222660664  0.532897869789478  1.0000   
         H         H         1.0       0.7893019575100662  0.6453409726647859  0.5493270228694241 1.0000   
         H         H         1.0       0.7730433452716949  0.6265406119167816  0.13590266899138678          1.0000   
         H         H         1.0       0.7433270265490206  0.6879009118651946  0.6213596865374532 1.0000   
         H         H         1.0       0.8039918322464836  0.5181553081251558  0.07297154948438389          1.0000   
         H         H         1.0       0.819686015347637   0.5606188128482985  0.06664222415596854          1.0000   
         H         H         1.0       0.791337566113884   0.5810378343969549  0.14617004619638965          1.0000   
         H         H         1.0       0.7711031688029053  0.5431234621559009  0.15010119431095198          1.0000   
         H         H         1.0       0.8049357235107806  0.6525195558893014  0.1146969183731567 1.0000   
         H         H         1.0       0.8256562870992091  0.6738831191315264  0.15505286277036853          1.0000   
         H         H         1.0       0.8661104237009607  0.6108069509228735  0.16721196436899474          1.0000   
         H         H         1.0       0.8399485015237398  0.5874882296524795  0.13709688720875426          1.0000   
         H         H         1.0       0.8500386860941705  0.5883020119012365  0.07756474975186745          1.0000   
         H         H         1.0       0.8748512169584952  0.6064556413013295  0.04471214882428454          1.0000   
         H         H         1.0       0.8660247546167148  0.6396239057598934  0.5425181934804533 1.0000   
         H         H         1.0       0.8319980275224544  0.6542860088696026  0.5743127704266495 1.0000   
         C         C         1.0       0.5913209127121841  0.5762752305863312  0.18504854228601994          1.0000   
         C         C         1.0       0.5679753160792977  0.5683147225498741  0.18792520882955485          1.0000   
         C         C         1.0       0.5512309107545633  0.5824683160678192  0.20150330565669755          1.0000   
         C         C         1.0       0.5578984068336194  0.6056840673413699  0.21214778301531767          1.0000   
         C         C         1.0       0.5811084517087187  0.6149345428708126  0.2067023569602835 1.0000   
         C         C         1.0       0.5975017325830048  0.6002053119537506  0.19200228389572546          1.0000   
         H         H         1.0       0.5630646475398035  0.5484761803866464  0.1840522712784181 1.0000   
         H         H         1.0       0.5356749459419377  0.5724735958719992  0.20765321874017928          1.0000   
         H         H         1.0       0.586615788192532   0.6341342974434563  0.20853304329265995          1.0000   
         H         H         1.0       0.614585685849219   0.6074563593291935  0.18784418472780914          1.0000   
         C         C         1.0       0.5682440205832541  0.6547194309392002  0.2511908177817424 1.0000   
         C         C         1.0       0.5458152850765715  0.6477499272313489  0.24163634596362907          1.0000   
         C         C         1.0       0.5286796994823835  0.6655177351878109  0.2396648630688108 1.0000   
         C         C         1.0       0.5344445870218447  0.6889886453087826  0.24148066350353845          1.0000   
         C         C         1.0       0.557498443274513   0.6963585773881708  0.24874604585829682          1.0000   
         C         C         1.0       0.5734605058439007  0.6783454707056062  0.25712014578020653          1.0000   
         C         C         1.0       0.5378243463997134  0.6213470812174531  0.2302953072329743 1.0000   
         C         C         1.0       0.5365061995057856  0.6077006372535108  0.2604200871283641 1.0000   
         C         C         1.0       0.5170593357514551  0.6082836755873325  0.27682793646795467          1.0000   
         C         C         1.0       0.511235446037551   0.5921430453031795  0.29705850333577555          1.0000   
         C         C         1.0       0.5294137784592999  0.5773976988818994  0.30719022974685933          1.0000   
         C         C         1.0       0.5505666571472726  0.5772840705223067  0.2931589398222998 1.0000   
         C         C         1.0       0.5547549370599598  0.5924337484792817  0.27060447385400244          1.0000   
         C         C         1.0       0.5212830101180307  0.6345019725255955  0.1825407260789471 1.0000   
         C         C         1.0       0.5028850894565442  0.6401585296135414  0.16518475429027962          1.0000   
         C         C         1.0       0.4792604811182488  0.6387952853177571  0.17535973122741366          1.0000   
         C         C         1.0       0.474961569208371   0.6263671510995662  0.20081819426906658          1.0000   
         C         C         1.0       0.49330266951634694           0.617065809509465  0.2148897478397787 1.0000   
         C         C         1.0       0.5166694062804695  0.6235293263146878  0.2078382477073554 1.0000   
         C         C         1.0       0.45788809490520405           0.6512626119301279 0.15963655695716938          1.0000   
         C         C         1.0       0.47192056447183156           0.7276318839746194 0.13693053392316734          1.0000   
         C         C         1.0       0.4592051082870809  0.7116120860614724  0.1185392096634076 1.0000   
         C         C         1.0       0.4570731894939054  0.6877137500636298  0.12461481147201094          1.0000   
         C         C         1.0       0.4654214872104072  0.6775897311108287  0.1492824237322202 1.0000   
         C         C         1.0       0.47868090159536025           0.6938209097678879 0.16708959546969698          1.0000   
         C         C         1.0       0.4812685764777907  0.7182001148917031  0.1617817680808117 1.0000   
         C         C         1.0       0.43307199931831025           0.658526210407563  0.17672794439718673          1.0000   
         C         C         1.0       0.433823313286316   0.666378213182833   0.20450888482191945          1.0000   
         C         C         1.0       0.4126764861910116  0.6742372303830542  0.21810692933610373          1.0000   
         C         C         1.0       0.39140568972374823           0.6742173975601337 0.2037951611818137 1.0000   
         C         C         1.0       0.3917281329493569  0.6668375267678905  0.1754712368247666 1.0000   
         C         C         1.0       0.41216949306632666           0.6587242154363904 0.16259254315268865          1.0000   
         C         C         1.0       0.4391132511432413  0.611082525802707   0.14364714821626848          1.0000   
         C         C         1.0       0.43660311072195995           0.5912068403307494 0.1269929029532349 1.0000   
         C         C         1.0       0.44756183577423564           0.5895352122647429 0.1010103214764361 1.0000   
         C         C         1.0       0.46250838662315935           0.6081969524141543 0.09281919963766566          1.0000   
         C         C         1.0       0.46515360455978066           0.6289880813571598 0.10951010121571422          1.0000   
         C         C         1.0       0.4528044141097437  0.630696956195112   0.13553267097938873          1.0000   
         H         H         1.0       0.58141733052533    0.6410121416506523  0.2559928955948884 1.0000   
         H         H         1.0       0.5109246494242737  0.6631200270628107  0.23083043153092184          1.0000   
         H         H         1.0       0.5205601313010647  0.7020839709130655  0.2375375625764971 1.0000   
         H         H         1.0       0.5913064837340715  0.6832421677595107  0.2644770796746446 1.0000   
         H         H         1.0       0.5037022387212755  0.6213234637364289  0.27155410545361114          1.0000   
         H         H         1.0       0.49256803329981236           0.5881038449048619 0.30484969189020356          1.0000   
         H         H         1.0       0.5654701422897882  0.5650464078639864  0.29731248538793303          1.0000   
         H         H         1.0       0.5718696716096804  0.5892775043502786  0.26176023084434474          1.0000   
         H         H         1.0       0.5403219019722817  0.6387112257188216  0.1781541808073933 1.0000   
         H         H         1.0       0.5072199854781332  0.6474350468639214  0.1447188958595359 1.0000   
         H         H         1.0       0.4567908087044331  0.624612711041848   0.21016096716227636          1.0000   
         H         H         1.0       0.48948579898915445           0.6080073567311997 0.23442840491982297          1.0000   
         H         H         1.0       0.4485614945632862  0.7408338749198262  0.5791788387147282 1.0000   
         H         H         1.0       0.44502084587827384           0.6766020250612246 0.11332904059114138          1.0000   
         H         H         1.0       0.48718064589423493           0.6877515147475572 0.18515982116982926          1.0000   
         H         H         1.0       0.49064772898868575           0.7300697160513037 0.17536374112808015          1.0000   
         H         H         1.0       0.4488923109004339  0.6671960416339251  0.21835364623402387          1.0000   
         H         H         1.0       0.4130972385189403  0.6783294602811434  0.24000811453459922          1.0000   
         H         H         1.0       0.37537649563717174           0.6665118675240103 0.16266974525813907          1.0000   
         H         H         1.0       0.4115453699117291  0.6533612822576822  0.1409703029537382 1.0000   
         H         H         1.0       0.4325432293946828  0.6108250403509868  0.16501919192230385          1.0000   
         H         H         1.0       0.42520919942894975           0.5763575572876023 0.1344040434546307 1.0000   
         H         H         1.0       0.4125034621199104  0.6337862839294592  0.593148844200586  1.0000   
         H         H         1.0       0.4790609524090051  0.6430295668555726  0.10589933099951405          1.0000   
         C         C         1.0       0.5121078101567742  0.5952224596047233  0.4485479850010482 1.0000   
         C         C         1.0       0.48946944804529025           0.5863504641628927 0.45525467760250227          1.0000   
         C         C         1.0       0.47375004251697617           0.6011881304331643 0.4696979775050717 1.0000   
         C         C         1.0       0.47802970200339095           0.6247593960613484 0.47663158489297264          1.0000   
         C         C         1.0       0.5017244332815173  0.6326923097546561  0.4693928821661819 1.0000   
         C         C         1.0       0.5188957738940655  0.6175545561620758  0.46013793162570804          1.0000   
         H         H         1.0       0.4853015863484341  0.5675187785674052  0.45227994613134787          1.0000   
         H         H         1.0       0.4553054280959524  0.595028651812922   0.4730367538752223 1.0000   
         H         H         1.0       0.5083772986991624  0.6505738300792159  0.47191541541406534          1.0000   
         H         H         1.0       0.5356629171796313  0.626371135080279   0.45788702794595865          1.0000   
         C         C         1.0       0.4856002350196313  0.6544037035317617  0.5305731421612672 1.0000   
         C         C         1.0       0.47093085197658385           0.6625179756549786 0.50857285624187   1.0000   
         C         C         1.0       0.4649814935338185  0.6871889120385256  0.5089433030226066 1.0000   
         C         C         1.0       0.4755993601213623  0.7028637935065192  0.528753591506551  1.0000   
         C         C         1.0       0.492649697508354   0.6941406318691412  0.5485685837965775 1.0000   
         C         C         1.0       0.4967167162286262  0.6702867885195903  0.5496549248637855 1.0000   
         C         C         1.0       0.45860545158392574           0.6432317959992226 0.48754735457637094          1.0000   
         C         C         1.0       0.43561393798968556           0.6350552144940252 0.5053937312658876 1.0000   
         C         C         1.0       0.41472106803547126           0.6478757371772863 0.5034590135420878 1.0000   
         C         C         1.0       0.3937860069996356  0.6413001785752601  0.5160197856346025 1.0000   
         C         C         1.0       0.3930318216400535  0.6193797397236607  0.5305822863032243 1.0000   
         C         C         1.0       0.41410862605158993           0.6065982990656861 0.5351073915908009 1.0000   
         C         C         1.0       0.4354238416706887  0.6134524260910779  0.521946734280272  1.0000   
         C         C         1.0       0.4638864424952613  0.6678888637646613  0.4419423622746005 1.0000   
         C         C         1.0       0.46174251658780957           0.6694217068269812 0.4133265132676448 1.0000   
         C         C         1.0       0.44878138571095744           0.6530730286177068 0.3969974566077236 1.0000   
         C         C         1.0       0.4337210774099387  0.6383710620718935  0.41298432576304   1.0000   
         C         C         1.0       0.43612496239705795           0.635527993247962  0.4411027023178799 1.0000   
         C         C         1.0       0.4513653624093576  0.6511832082778836  0.45631134990341715          1.0000   
         C         C         1.0       0.45120548637258573           0.6481836058647906 0.3637470509777574 1.0000   
         C         C         1.0       0.4865584097102924  0.707997937956174   0.3228576392402543 1.0000   
         C         C         1.0       0.49071773542474967           0.6852905648287847 0.3131733318511    1.0000   
         C         C         1.0       0.4779183558991502  0.6657816365219565  0.32375392389504165          1.0000   
         C         C         1.0       0.4614653718863189  0.6697998814836585  0.3460923275596765 1.0000   
         C         C         1.0       0.4552188514435602  0.6939016933593176  0.3516489305482055 1.0000   
         C         C         1.0       0.46868756195636707           0.7123236390483517 0.3413947284267466 1.0000   
         C         C         1.0       0.42545712981900385           0.6454864151027584 0.3489334678531459 1.0000   
         C         C         1.0       0.4067747271997033  0.6593017901815899  0.35929608250213907          1.0000   
         C         C         1.0       0.383597542038856   0.6548875949163729  0.34991180785306825          1.0000   
         C         C         1.0       0.37896836036792975           0.6402982330019631 0.3282739248807025 1.0000   
         C         C         1.0       0.3974986813117189  0.6277423018584808  0.31599183107533524          1.0000   
         C         C         1.0       0.4213745533307036  0.6301850014703037  0.3254699219817033 1.0000   
         C         C         1.0       0.462332129914519   0.6010757631992089  0.36380387746967463          1.0000   
         C         C         1.0       0.47874936724148187           0.5826997059907292 0.3686924674863429 1.0000   
         C         C         1.0       0.5021747782202562  0.5894079222517034  0.3692936143633186 1.0000   
         C         C         1.0       0.5098487462963973  0.613115586498907   0.36984085655007526          1.0000   
         C         C         1.0       0.49313446738339595           0.6309320419052571 0.37233450686947905          1.0000   
         C         C         1.0       0.4695714146343114  0.6256950906286562  0.36553289648182113          1.0000   
         H         H         1.0       0.4888148687376089  0.6354882001061752  0.532056736243321  1.0000   
         H         H         1.0       0.45501783290191167           0.6963519546525788 0.49221884689487505          1.0000   
         H         H         1.0       0.47139133012026746           0.7222339481324547 0.5300083435101104 1.0000   
         H         H         1.0       0.5087621599224308  0.6643363992705416  0.5651513728917719 1.0000   
         H         H         1.0       0.41477968052994046           0.6640698255468402 0.49131938280023674          1.0000   
         H         H         1.0       0.37778977068587827           0.6524229789824262 0.5155648509034934 1.0000   
         H         H         1.0       0.4117853636796046  0.5893637313827221  0.5457146041273666 1.0000   
         H         H         1.0       0.45325343982433686           0.6053852092509248 0.5246161583434419 1.0000   
         H         H         1.0       0.47522935198870964           0.6796212406310597 0.4530297038964231 1.0000   
         H         H         1.0       0.4731603112459914  0.6816286387150671  0.4011301827277516 1.0000   
         H         H         1.0       0.4218339246397792  0.6252006778409308  0.4027081091534541 1.0000   
         H         H         1.0       0.4260148099434907  0.6232154491784064  0.4517031995279562 1.0000   
         H         H         1.0       0.50539907812054    0.6811671677744503  0.2978107147778864 1.0000   
         H         H         1.0       0.4830238764153341  0.6472558161267501  0.31631136514730707          1.0000   
         H         H         1.0       0.44026860230326303           0.6992078625988751 0.3649473451766547 1.0000   
         H         H         1.0       0.46294509283705537           0.7309580670389029 0.3465968289620748 1.0000   
         H         H         1.0       0.4094259861094681  0.6727060216538775  0.37683036960581895          1.0000   
         H         H         1.0       0.37022229486519415           0.6667131696985305 0.3572048673719023 1.0000   
         H         H         1.0       0.39514723731604184           0.6159996269582867 0.298085868704944  1.0000   
         H         H         1.0       0.4350152938941372  0.6197809189701667  0.3127041061477858 1.0000   
         H         H         1.0       0.44397635562506926           0.5950250626578423 0.3582264126888694 1.0000   
         H         H         1.0       0.474650415708116   0.5629899658907477  0.366221272993478  1.0000   
         H         H         1.0       0.5287126224177917  0.616349138920189   0.3696091816580354 1.0000   
         H         H         1.0       0.5013317691835133  0.6481338278398624  0.37523525852212697          1.0000   
         C         C         1.0       0.677707826979636   0.7536502605011219  0.4039256301637561 1.0000   
         C         C         1.0       0.6858460697420772  0.7469641369460771  0.3768965876614866 1.0000   
         C         C         1.0       0.6707852458992437  0.7435768411651296  0.3551846747244695 1.0000   
         C         C         1.0       0.6462641302202907  0.7486775809382105  0.3581583907222489 1.0000   
         C         C         1.0       0.6376714479435505  0.7570727493782796  0.38461307725006016          1.0000   
         C         C         1.0       0.6540655500106966  0.7595675174275399  0.4062230907441347 1.0000   
         H         H         1.0       0.7041945970839925  0.740726140302147   0.3726831820714565 1.0000   
         H         H         1.0       0.6764122936878977  0.7403748030912236  0.3337247058740373 1.0000   
         H         H         1.0       0.619652764201649   0.761248271310435   0.38737053380379227          1.0000   
         H         H         1.0       0.6476809215535378  0.7663557306605652  0.42630113555340615          1.0000   
         C         C         1.0       0.5913583495845576  0.7257448537710914  0.3623574601498023 1.0000   
         C         C         1.0       0.5995620502413455  0.7420727880106384  0.3410174942755762 1.0000   
         C         C         1.0       0.5813370745776082  0.7526205818372302  0.3253844387293837 1.0000   
         C         C         1.0       0.5574089727291498  0.7496946987219921  0.3307666727897238 1.0000   
         C         C         1.0       0.5500050926266897  0.7306027141808255  0.3468231445597467 1.0000   
         C         C         1.0       0.5669326997870905  0.7199627742748047  0.362714310930229  1.0000   
         C         C         1.0       0.6273150337221022  0.7478296177515846  0.3329292502548977 1.0000   
         C         C         1.0       0.6310292719160326  0.7253941727485446  0.31183995560382194          1.0000   
         C         C         1.0       0.6265259727222827  0.7265981745771348  0.2827421780816601 1.0000   
         C         C         1.0       0.6331230730469153  0.7084170079322991  0.2645183457794815 1.0000   
         C         C         1.0       0.6447790705524403  0.6880016416257664  0.2743683237945656 1.0000   
         C         C         1.0       0.645758596442107   0.6852725171523949  0.30329288053317893          1.0000   
         C         C         1.0       0.639901394142531   0.7036915465842818  0.3226503188617689 1.0000   
         C         C         1.0       0.620098347871249   0.7928592530861882  0.33419054582926455          1.0000   
         C         C         1.0       0.6112363871579732  0.8115864598004264  0.3208775856913373 1.0000   
         C         C         1.0       0.6165230012768224  0.8151348720078906  0.29218946797401135          1.0000   
         C         C         1.0       0.632176298178564   0.7988041445713401  0.27952869488150195          1.0000   
         C         C         1.0       0.6408385531646066  0.7802478916955954  0.29408125090272424          1.0000   
         C         C         1.0       0.6305354095115208  0.774212543576003   0.3202171895125758 1.0000   
         C         C         1.0       0.5991856593909305  0.8313464675887505  0.2718189424672224 1.0000   
         C         C         1.0       0.5576799326128083  0.76793330152498    0.24601771037757283          1.0000   
         C         C         1.0       0.5485148669926839  0.7821895850126731  0.26665948545738033          1.0000   
         C         C         1.0       0.562870471778805   0.8019441219264037  0.27451826537728485          1.0000   
         C         C         1.0       0.5824654874558624  0.8107179709950161  0.25914303127428495          1.0000   
         C         C         1.0       0.5890828301421429  0.7973733853620606  0.23598156754594357          1.0000   
         C         C         1.0       0.577439504570882   0.775990265373048   0.2304375033201553 1.0000   
         C         C         1.0       0.6114071511240403  0.8463250720599904  0.24698388350791736          1.0000   
         C         C         1.0       0.6355409456048953  0.8521966831847952  0.24737377016983228          1.0000   
         C         C         1.0       0.6450867651865804  0.8638515833285306  0.22457280954558237          1.0000   
         C         C         1.0       0.6301474016418247  0.871996350410847   0.20319817853936695          1.0000   
         C         C         1.0       0.6065629919499325  0.8691213190257232  0.20512108741204269          1.0000   
         C         C         1.0       0.5967149855254099  0.8556243445260988  0.2259270065280986 1.0000   
         C         C         1.0       0.5650381907590434  0.8575084647840343  0.2885918164373271 1.0000   
         C         C         1.0       0.5548429548227546  0.8752949207673623  0.3042527504187129 1.0000   
         C         C         1.0       0.5683567265973816  0.89105378661324    0.32013998510269204          1.0000   
         C         C         1.0       0.5925899619369176  0.8883168889116088  0.32090758454147617          1.0000   
         C         C         1.0       0.603526842118556   0.8693145780611433  0.3061346924729194 1.0000   
         C         C         1.0       0.5890177277520053  0.8526442842785454  0.29129471101248705          1.0000   
         H         H         1.0       0.6041137968668845  0.7197544860455305  0.37828581596961425          1.0000   
         H         H         1.0       0.584142824879652   0.765191464857791   0.3095495004681231 1.0000   
         H         H         1.0       0.5435452163151396  0.7589088598622783  0.32066462124307293          1.0000   
         H         H         1.0       0.5596822169688325  0.70719442460385    0.3783780456995701 1.0000   
         H         H         1.0       0.6187571432567283  0.7415358738703237  0.27357678545786823          1.0000   
         H         H         1.0       0.6319794066047641  0.7087313882683195  0.24114421831263183          1.0000   
         H         H         1.0       0.6524941701674658  0.6679754584963153  0.31177551942369564          1.0000   
         H         H         1.0       0.6434325570367561  0.7040356281925574  0.34525836865701703          1.0000   
         H         H         1.0       0.6137823061621884  0.7871059584423173  0.354870770937803  1.0000   
         H         H         1.0       0.5999333599205035  0.8228429382342418  0.33182770772665376          1.0000   
         H         H         1.0       0.6345750745426114  0.8015975290419659  0.25599761149689976          1.0000   
         H         H         1.0       0.650040031357471   0.7657440471080517  0.2814496416753993 1.0000   
         H         H         1.0       0.5344843901870199  0.7767067643430988  0.2820016658194393 1.0000   
         H         H         1.0       0.5564387408800586  0.8100227702491138  0.29392473831985705          1.0000   
         H         H         1.0       0.6026029573724718  0.8029967901484002  0.22172161162088674          1.0000   
         H         H         1.0       0.5816303716019752  0.7680120967098902  0.21124019545212058          1.0000   
         H         H         1.0       0.6466828350796676  0.8461605608479974  0.26437863586425986          1.0000   
         H         H         1.0       0.6640516445214084  0.867480927561729   0.22263466940452536          1.0000   
         H         H         1.0       0.593932171355325   0.8764475979466614  0.188082019399238  1.0000   
         H         H         1.0       0.5780064480744166  0.8554871586955881  0.22969893912293232          1.0000   
         H         H         1.0       0.5545513729439641  0.8467531032920753  0.27432571783250537          1.0000   
         H         H         1.0       0.5357014926529547  0.8810361360040981  0.30185551257900306          1.0000   
         H         H         1.0       0.6039001183896764  0.9031088476929029  0.3263159124241459 1.0000   
         H         H         1.0       0.6224021830148823  0.8664563481519532  0.3064380948477172 1.0000   
         C         C         1.0       0.633790400904355   0.8459493681277299  0.14803467262334244          1.0000   
         C         C         1.0       0.6443796815162418  0.822953220363528   0.1503610423061211 1.0000   
         C         C         1.0       0.6310230262205216  0.8033467182155217  0.1444888327291    1.0000   
         C         C         1.0       0.6067438550108591  0.8040947899794553  0.13764917879142455          1.0000   
         C         C         1.0       0.5948165354291012  0.8266332892611852  0.13700954818261835          1.0000   
         C         C         1.0       0.6090916220378123  0.84663288083673    0.14063755799479247          1.0000   
         H         H         1.0       0.6637505348831872  0.8211834001725729  0.15292387530429777          1.0000   
         H         H         1.0       0.640110511069136   0.7861946361994435  0.14010753005422052          1.0000   
         H         H         1.0       0.5755474110218044  0.8275522679869877  0.13514474491383724          1.0000   
         H         H         1.0       0.6000594856001961  0.863714083072302   0.14066487914745876          1.0000   
         C         C         1.0       0.5559404684750641  0.7868897306819306  0.15968117705768609          1.0000   
         C         C         1.0       0.554458570721936   0.7991097223442051  0.6261815902998796 1.0000   
         C         C         1.0       0.5449717960656688  0.7782030532489395  0.6127694477996428 1.0000   
         C         C         1.0       0.5215592282525024  0.7705755351644797  0.6154527797272401 1.0000   
         C         C         1.0       0.5170184164918139  0.7704574532206415  0.14959321173605258          1.0000   
         C         C         1.0       0.5314861409269411  0.7851802438538977  0.16604163636291586          1.0000   
         C         C         1.0       0.5806886027576287  0.8060006988961195  0.61729425540144   1.0000   
         C         C         1.0       0.5966016314591759  0.7859266138476797  0.6355849093256353 1.0000   
         C         C         1.0       0.6026282935558799  0.7630877980586557  0.6250481886179698 1.0000   
         C         C         1.0       0.6216702219606769  0.7514647476350634  0.6365771656778526 1.0000   
         C         C         1.0       0.6354002771337396  0.7628879746365228  0.6589875911455223 1.0000   
         C         C         1.0       0.619650328937051   0.7312770074252413  0.17725300801439745          1.0000   
         C         C         1.0       0.6131071601242557  0.7523959994955518  0.16554287068226167          1.0000   
         C         C         1.0       0.5697159181244663  0.8108986280314068  0.563619163940673  1.0000   
         C         C         1.0       0.5733182175622052  0.8023354356305212  0.5351224851254859 1.0000   
         C         C         1.0       0.5938335523871336  0.7888817146519126  0.529255299222706  1.0000   
         C         C         1.0       0.6121735332660677  0.7886278880790593  0.5487074453243838 1.0000   
         C         C         1.0       0.6086305133621153  0.7972184233814574  0.5752839673280079 1.0000   
         C         C         1.0       0.5863685802332135  0.8056399127507722  0.5834777102701342 1.0000   
         C         C         1.0       0.5957046869996129  0.7699951910276908  0.5018299200017199 1.0000   
         C         C         1.0       0.5485312378856934  0.7219664387817838  0.5523930362877746 1.0000   
         C         C         1.0       0.5400193100068688  0.7345802975235819  0.52990615399811   1.0000   
         C         C         1.0       0.5543512191238426  0.7483140257158777  0.513474779819109  1.0000   
         C         C         1.0       0.579035938675164   0.7497022809331012  0.5170311707088368 1.0000   
         C         C         1.0       0.5887897632319112  0.7334792474626184  0.5371704795898651 1.0000   
         C         C         1.0       0.5730424204402331  0.7215957982596027  0.555366591292724  1.0000   
         C         C         1.0       0.6217741502291828  0.7596744531384964  0.49371898753688453          1.0000   
         C         C         1.0       0.6418479544299885  0.7749007429129124  0.49181363637242975          1.0000   
         C         C         1.0       0.663037370866206   0.767284545449729   0.47808103658327905          1.0000   
         C         C         1.0       0.6668072969521814  0.7432475120699418  0.47188237050542803          1.0000   
         C         C         1.0       0.6479230817005818  0.7270492525789705  0.4767836760717574 1.0000   
         C         C         1.0       0.6261682921835189  0.735397778326343   0.48443271339567817          1.0000   
         C         C         1.0       0.5741457248946444  0.7642055292888346  0.4548420633185277 1.0000   
         C         C         1.0       0.5703182943677096  0.769798288550671   0.4262942413597327 1.0000   
         C         C         1.0       0.5766149037102857  0.7929933216374092  0.4166558074230175 1.0000   
         C         C         1.0       0.5873437134995267  0.8088148939176955  0.43475640435695956          1.0000   
         C         C         1.0       0.5925605340246252  0.8025534493373221  0.4625714810577791 1.0000   
         C         C         1.0       0.585876751557018   0.7794973084478233  0.4732266387779453 1.0000   
         H         H         1.0       0.5670160713356847  0.7985870522334118  0.17247785132893512          1.0000   
         H         H         1.0       0.5554699981512564  0.7695332192431416  0.5982575671733814 1.0000   
         H         H         1.0       0.5167586153335855  0.7548534739902878  0.6043517627989657 1.0000   
         H         H         1.0       0.5227042225907165  0.7981726860881809  0.1806380700307497 1.0000   
         H         H         1.0       0.5945581280160728  0.7562311860592493  0.6059503102884921 1.0000   
         H         H         1.0       0.626050948474828   0.7355438091000628  0.6239094359401668 1.0000   
         H         H         1.0       0.6288649330825814  0.729801651386101   0.19673438048378708          1.0000   
         H         H         1.0       0.6141679807101976  0.7678399975317922  0.17924111921416652          1.0000   
         H         H         1.0       0.5533373928528061  0.8215750879878136  0.5699652135522266 1.0000   
         H         H         1.0       0.5598720565429622  0.8036745984867377  0.5182412689129394 1.0000   
         H         H         1.0       0.6272170072550024  0.7768195563452647  0.5477153286656831 1.0000   
         H         H         1.0       0.6231603221784333  0.7909148039032448  0.587734884171247  1.0000   
         H         H         1.0       0.5208959754917764  0.7349377539467441  0.5251432968296117 1.0000   
         H         H         1.0       0.5448111255662481  0.761064879088469   0.5022051556320105 1.0000   
         H         H         1.0       0.6074785799196281  0.7305764423221269  0.5432448746515243 1.0000   
         H         H         1.0       0.5806647521682409  0.7101133597689437  0.5705351634829372 1.0000   
         H         H         1.0       0.6415267968224697  0.7933195273043577  0.4967051649550245 1.0000   
         H         H         1.0       0.6760984391274001  0.780479610078334   0.47652058113823503          1.0000   
         H         H         1.0       0.6508139273968405  0.708194238546894   0.4693944397250048 1.0000   
         H         H         1.0       0.6106018393833118  0.7249539865475338  0.4857291551403803 1.0000   
         H         H         1.0       0.5731691222077762  0.7449979721621369  0.46037523647771345          1.0000   
         H         H         1.0       0.5617756424400425  0.7563383610235258  0.4116272343384522 1.0000   
         H         H         1.0       0.5915869648220782  0.8261221521932494  0.42954686331447595          1.0000   
         H         H         1.0       0.6017406630153638  0.816273328085747   0.4755964797990789 1.0000   
         C         C         1.0       0.07285378752155314           0.519061042888432  0.3404409061722743 1.0000   
         C         C         1.0       0.0843601314269183  0.49735665850240235           0.3391693708971657 1.0000   
         C         C         1.0       0.07029172988838073           0.4768211364506457 0.34089413191657325          1.0000   
         C         C         1.0       0.0447943433114506  0.47642819195725705           0.34227277159462915          1.0000   
         C         C         1.0       0.034161779683363314          0.4990682294447957 0.340743288087132  1.0000   
         C         C         1.0       0.04774620812278263           0.5200582240666695 0.33806249537184546          1.0000   
         H         H         1.0       0.10333661031658942           0.49893051644606984          0.33944883938699605          1.0000   
         H         H         1.0       0.08037077292538017           0.4601867542843313 0.3415983193832844 1.0000   
         H         H         1.0       0.01629899131567636           0.5005999133845794 0.34072062414733495          1.0000   
         H         H         1.0       0.04007258380181278           0.538261082533463  0.338068562299633  1.0000   
         C         C         1.0       0.9986781261744586  0.46360207459672154           0.37599405479917947          1.0000   
         C         C         1.0       0.004243480918590059          0.44940296313802663          0.352629767303145  1.0000   
         C         C         1.0       0.9863440669494099  0.4351972931336079  0.3410732828618183 1.0000   
         C         C         1.0       0.9629380787159495  0.43560901037015526           0.35333430381765013          1.0000   
         C         C         1.0       0.9576203834736097  0.4502956763157407  0.37570078173975624          1.0000   
         C         C         1.0       0.974990274250842   0.4647150026192267  0.3869276377734703 1.0000   
         C         C         1.0       0.03131515079769431           0.4496083067393322 0.34073215899755   1.0000   
         C         C         1.0       0.043239325641983406          0.4293761957073749 0.3585941230665628 1.0000   
         C         C         1.0       0.0423647299493537  0.404960012980714   0.3515924375823972 1.0000   
         C         C         1.0       0.059181766307687456          0.38994833966464193          0.3604688318937504 1.0000   
         C         C         1.0       0.07583456278163793           0.3977655390960567 0.3813845353743245 1.0000   
         C         C         1.0       0.07468411194296065           0.4213152825379387 0.3924128146978437 1.0000   
         C         C         1.0       0.05590513773947614           0.43563228766089446          0.38371043124623383          1.0000   
         C         C         1.0       0.018205959560184004          0.4594007147590603 0.2910438830347704 1.0000   
         C         C         1.0       0.021300380651758877          0.45899837397399335          0.2619482823914664 1.0000   
         C         C         1.0       0.03936489320004545           0.4462162263282119 0.249321550217241  1.0000   
         C         C         1.0       0.053505573071447765          0.4325500949726865 0.2674062568856635 1.0000   
         C         C         1.0       0.052080640036641146          0.4334158432722906 0.2956197032552918 1.0000   
         C         C         1.0       0.03356708994076829           0.4455553161838419 0.30755520534252767          1.0000   
         C         C         1.0       0.04431546304745493           0.45024627072928386          0.21749465708737706          1.0000   
         C         C         1.0       0.9809837807692557  0.47827928262495656           0.17177983830122684          1.0000   
         C         C         1.0       0.003929382357812816          0.48841919515138893          0.16636616646802865          1.0000   
         C         C         1.0       0.023262325368018644          0.48030629639870426          0.18125517825829657          1.0000   
         C         C         1.0       0.021640104364179402          0.4613151574106584 0.19992182076716322          1.0000   
         C         C         1.0       0.9996531624055215  0.4496632953304049  0.20161233078132293          1.0000   
         C         C         1.0       0.9790865061064172  0.45885605134360746           0.18842037735975026          1.0000   
         C         C         1.0       0.05247965676564026           0.42835278586084075          0.19834207372686802          1.0000   
         C         C         1.0       0.048268293054973155          0.40533510901046915          0.20818305385871105          1.0000   
         C         C         1.0       0.05443621450217462           0.38592363998238377          0.1918778751586766 1.0000   
         C         C         1.0       0.0649966177124166  0.3882757852669604  0.16529891213917675          1.0000   
         C         C         1.0       0.06899537216536955           0.4116606396455674 0.1555642490858524 1.0000   
         C         C         1.0       0.06282173088282872           0.4313269232198753 0.17170519355656375          1.0000   
         C         C         1.0       0.09221168015868876           0.4578053473098116 0.22338336961666344          1.0000   
         C         C         1.0       0.11145144698613113           0.4722234452298212 0.23074251948810418          1.0000   
         C         C         1.0       0.10780785644753794           0.49599348319552994          0.23740574408945525          1.0000   
         C         C         1.0       0.08564473988225374           0.5058308582538229 0.23690623191237148          1.0000   
         C         C         1.0       0.06635741610278623           0.4911482723726673 0.2272778331218622 1.0000   
         C         C         1.0       0.06874340831525316           0.46711578276399085          0.22183724716084283          1.0000   
         H         H         1.0       0.014003824016471711          0.4734871045963803 0.3856407431836702 1.0000   
         H         H         1.0       0.9893619842790199  0.4229762583966049  0.32279925466379206          1.0000   
         H         H         1.0       0.9503957536466727  0.4254046500004062  0.34258849064523705          1.0000   
         H         H         1.0       0.9732773378533968  0.4770532185594049  0.4039877713239722 1.0000   
         H         H         1.0       0.03101825829425242           0.39838927500326315          0.3344956242261051 1.0000   
         H         H         1.0       0.05914544384350484           0.37132129044409995          0.352049430872755  1.0000   
         H         H         1.0       0.0879991374631807  0.4261775817225136  0.40997523741884034          1.0000   
         H         H         1.0       0.05577982866123011           0.4527465373817456 0.39141519403593966          1.0000   
         H         H         1.0       0.005326018520228182          0.47093364506076807          0.30080315586481177          1.0000   
         H         H         1.0       0.011154317943963488          0.47298277222155544          0.25206529554767304          1.0000   
         H         H         1.0       0.07034757107299927           0.4225826479365454 0.2593699891757937 1.0000   
         H         H         1.0       0.06218384006377398           0.42183712081630836          0.30852108415088214          1.0000   
         H         H         1.0       0.00642287501629446           0.5041494904963832 0.15309085289417104          1.0000   
         H         H         1.0       0.040537323327021424          0.4893209327110203 0.17764133314453373          1.0000   
         H         H         1.0       0.9977770302703226  0.4332800689344492  0.21504159526986388          1.0000   
         H         H         1.0       0.9625212306765026  0.44764780012901995           0.18706552261241596          1.0000   
         H         H         1.0       0.036511303186715915          0.40406072861374676          0.22751261390283167          1.0000   
         H         H         1.0       0.04960745461117799           0.36815456085532466          0.19949173843308532          1.0000   
         H         H         1.0       0.07721846574518731           0.4147679064554656 0.13524063269655337          1.0000   
         H         H         1.0       0.06754006445348248           0.44833680097549256          0.1651159717961346 1.0000   
         H         H         1.0       0.09461119070297205           0.4379386271540668 0.21886545844439265          1.0000   
         H         H         1.0       0.12910050678742827           0.4638525096341141 0.23122285378524912          1.0000   
         H         H         1.0       0.08398807022528927           0.5248246792094394 0.24417579806516543          1.0000   
         H         H         1.0       0.04967993947783644           0.4998396808058795 0.2254939510373124 1.0000   
         C         C         1.0       0.08266797940460553           0.5614305226454721 0.5284335375580617 1.0000   
         C         C         1.0       0.0970176359536418  0.5430301047738014  0.518050965532936  1.0000   
         C         C         1.0       0.09107319160846397           0.5206220593716158 0.5264512995170799 1.0000   
         C         C         1.0       0.07383532966081585           0.515477331524881  0.5456197443350996 1.0000   
         C         C         1.0       0.05621831625255403           0.5331441971026709 0.5501432842899937 1.0000   
         C         C         1.0       0.060216554657636534          0.5556596884386765 0.5396088476456263 1.0000   
         H         H         1.0       0.11431964336536773           0.5475537068153606 0.509756084050887  1.0000   
         H         H         1.0       0.10639583486981512           0.5073724174201071 0.5248175486964354 1.0000   
         H         H         1.0       0.04107012243260244           0.5284644603778975 0.5624540069247543 1.0000   
         H         H         1.0       0.048078792183930526          0.5710268636460604 0.5457046887867637 1.0000   
         C         C         1.0       0.056834005483513916          0.485135796752532  0.6167830887481436 1.0000   
         C         C         1.0       0.05474209755990089           0.4888766882284918 0.5877691807939361 1.0000   
         C         C         1.0       0.032150732335584076          0.48680437770225987          0.5764240113337422 1.0000   
         C         C         1.0       0.012086005959652812          0.4818492911321115 0.5926260744718498 1.0000   
         C         C         1.0       0.014405962489568047          0.47859343575818897          0.621796299287164  1.0000   
         C         C         1.0       0.03665191986322869           0.4804539789689305 0.633574287680632  1.0000   
         C         C         1.0       0.07746157195326095           0.4936704902079186 0.5670424312280041 1.0000   
         C         C         1.0       0.12770274980878246           0.5282274905554619 0.1388755621500676 1.0000   
         C         C         1.0       0.12401049451334827           0.48999929759545824          0.5814557788807438 1.0000   
         C         C         1.0       0.14550227056130638           0.5021143712214442 0.17378058124044132          1.0000   
         C         C         1.0       0.14236264080478808           0.5189037664243381 0.19480808120348364          1.0000   
         C         C         1.0       0.13228086661861088           0.5410319595607265 0.18744819162465887          1.0000   
         C         C         1.0       0.12526942899846166           0.5454710526207874 0.15953749013180782          1.0000   
         C         C         1.0       0.07336485750933197           0.4634715672448416 0.5231449372148901 1.0000   
         C         C         1.0       0.0688682560637559  0.4407953232556619  0.5119911305910178 1.0000   
         C         C         1.0       0.06677346188389244           0.4211128473016636 0.5297630831108813 1.0000   
         C         C         1.0       0.07391413832695637           0.4245779484160925 0.557912524303781  1.0000   
         C         C         1.0       0.08261106224565462           0.44608665056638314          0.5678752001373272 1.0000   
         C         C         1.0       0.08117045660853213           0.4668206275511099 0.5518742405093839 1.0000   
         C         C         1.0       0.050467934451410734          0.3994512603124418 0.5203172441542935 1.0000   
         C         C         1.0       0.9854821802363535  0.4422287777828777  0.51965417034517   1.0000   
         C         C         1.0       0.996364283336024   0.43590887792264243           0.49467872798966783          1.0000   
         C         C         1.0       0.0160589284892656  0.42159777272462495           0.4948565465825909 1.0000   
         C         C         1.0       0.024327065568628292          0.4124798280473408 0.5208125936504046 1.0000   
         C         C         1.0       0.013142452048543918          0.41766800237764257          0.5460270334393119 1.0000   
         C         C         1.0       0.9944041785911399  0.4338746224084268  0.5456406632050618 1.0000   
         C         C         1.0       0.05164667713001214           0.37558446730941253          0.5378736764248767 1.0000   
         C         C         1.0       0.07408894324750359           0.3673076170872594 0.5465072369133696 1.0000   
         C         C         1.0       0.07772238372215812           0.34367044583478285          0.5512077495647165 1.0000   
         C         C         1.0       0.05834667009450589           0.32738862146169795          0.5488931542302432 1.0000   
         C         C         1.0       0.035626041099972694          0.3355469372181327 0.5417018803413384 1.0000   
         C         C         1.0       0.03136883124101897           0.3596454175800052 0.5374758306911974 1.0000   
         C         C         1.0       0.043549219374744874          0.3761952832948623 0.4704136913768382 1.0000   
         C         C         1.0       0.05234159363933344           0.3680008518267225 0.4450899466590157 1.0000   
         C         C         1.0       0.07682688786449486           0.36895034921507774          0.43844899377328495          1.0000   
         C         C         1.0       0.09264116021210458           0.3791641761496308 0.4583198192955198 1.0000   
         C         C         1.0       0.0826711711940327  0.3888935733443034  0.4831531809845109 1.0000   
         C         C         1.0       0.05869629244493679           0.38852014666607615          0.4892460941089009 1.0000   
         H         H         1.0       0.08354896902466336           0.5205954159788974 0.1468592279032946 1.0000   
         H         H         1.0       0.02846313200420925           0.48717164449824424          0.5527134829729222 1.0000   
         H         H         1.0       0.9948164852274227  0.4820409192935941  0.583638543809559  1.0000   
         H         H         1.0       0.04058275054302474           0.523896839298351  0.14282703369587305          1.0000   
         H         H         1.0       0.12574570887997197           0.4752657707504497 0.5657573559162083 1.0000   
         H         H         1.0       0.15463112644694105           0.4851881503912904 0.17819298735615363          1.0000   
         H         H         1.0       0.13301279147866213           0.5546082986700824 0.2033920288885334 1.0000   
         H         H         1.0       0.11832758681140987           0.5621595760655623 0.15354124428561022          1.0000   
         H         H         1.0       0.07010526348147894           0.47891804260783066          0.5104961999583475 1.0000   
         H         H         1.0       0.06306451666162016           0.43931161899742577          0.49064776471015176          1.0000   
         H         H         1.0       0.07029560021506787           0.41033954780205284          0.5731040826518757 1.0000   
         H         H         1.0       0.0861207788291074  0.4490363243876837  0.5906840625200146 1.0000   
         H         H         1.0       0.9901535411339113  0.4432090344413158  0.473295404333645  1.0000   
         H         H         1.0       0.024432699642469746          0.41886050203403685          0.4741826803837824 1.0000   
         H         H         1.0       0.018311122015033376          0.4102342765194935 0.5662070566102199 1.0000   
         H         H         1.0       0.9880279312222571  0.43947836175281974           0.5662963383521604 1.0000   
         H         H         1.0       0.09021417838671875           0.37853017346632784          0.5483153849250011 1.0000   
         H         H         1.0       0.09476772454136317           0.3369581188032123 0.5547392138339244 1.0000   
         H         H         1.0       0.022354886146433772          0.3214797366168681 0.534445048403943  1.0000   
         H         H         1.0       0.015551614936640812          0.36544624386596525          0.5283099060660262 1.0000   
         H         H         1.0       0.02410675408510321           0.3724776586024498 0.4752828656829238 1.0000   
         H         H         1.0       0.04078096685552701           0.3585702180350777 0.4291588755005063 1.0000   
         H         H         1.0       0.1118958907299739  0.3821613437842717  0.45374365858236465          1.0000   
         H         H         1.0       0.09738572573307068           0.395621031524995  0.4959140484232123 1.0000   
         C         C         1.0       0.9342917916064698  0.640883425418778   0.2681308388545486 1.0000   
         C         C         1.0       0.9597114512174381  0.6417430135960162  0.26375210840159585          1.0000   
         C         C         1.0       0.9698397084845556  0.6302762146636554  0.23962253577949671          1.0000   
         C         C         1.0       0.9556965493874413  0.615565175991554   0.2220891139422765 1.0000   
         C         C         1.0       0.9318620166776234  0.6130764223566749  0.22783708712112888          1.0000   
         C         C         1.0       0.9212231913277531  0.6262142259537541  0.24995236588308029          1.0000   
         H         H         1.0       0.9709202514832861  0.6510425547902335  0.27912463341469157          1.0000   
         H         H         1.0       0.9884396366708627  0.6309652913735772  0.2346660033992147 1.0000   
         H         H         1.0       0.9214127448327     0.6014514660525496  0.21236228287841283          1.0000   
         H         H         1.0       0.9014055682136011  0.6230082317908059  0.24884679749066316          1.0000   
         C         C         1.0       0.9543134441686133  0.5608875744268301  0.21222245393562425          1.0000   
         C         C         1.0       0.9579615574872736  0.5766958566674981  0.18957206490693262          1.0000   
         C         C         1.0       0.9567266373752187  0.5673499705753681  0.16232604242061976          1.0000   
         C         C         1.0       0.950694367276865   0.5440001271384025  0.15754618382418997          1.0000   
         C         C         1.0       0.945232277121822   0.5285010981054717  0.17989387514379998          1.0000   
         C         C         1.0       0.9473398413022195  0.5367419986991756  0.20699561345105028          1.0000   
         C         C         1.0       0.9677502823122166  0.6032768723049031  0.1940292213435794 1.0000   
         C         C         1.0       0.9955665400631201  0.5956716469107056  0.19543507699107027          1.0000   
         C         C         1.0       0.010537200869031427          0.5953581807037213 0.1719841004037297 1.0000   
         C         C         1.0       0.033702211332347964          0.5903822083943938 0.17210336611200935          1.0000   
         C         C         1.0       0.044209797935574446          0.5810834534209629 0.19621669694846042          1.0000   
         C         C         1.0       0.030077062706425517          0.5796531987747058 0.21989648241561463          1.0000   
         C         C         1.0       0.006334339919699783          0.587941547474414  0.22083717540445824          1.0000   
         C         C         1.0       0.9402150262785555  0.6214620813821924  0.15571723997547368          1.0000   
         C         C         1.0       0.9391334397544553  0.6300231859209733  0.12870317424768438          1.0000   
         C         C         1.0       0.9584270510771862  0.6444126310527764  0.11814409342439365          1.0000   
         C         C         1.0       0.975197549686027   0.6525431960827316  0.13751622381597078          1.0000   
         C         C         1.0       0.9778037448661244  0.6403162941807977  0.16204108677145262          1.0000   
         C         C         1.0       0.962074938631871   0.6230476556386514  0.17028173650352296          1.0000   
         C         C         1.0       0.9734961765314972  0.5943659790354916  0.6261611823497196 1.0000   
         C         C         1.0       0.9852035333581809  0.5198376307301192  0.6506144425538837 1.0000   
         C         C         1.0       0.9624504615354827  0.527663714871817   0.6407956052994083 1.0000   
         C         C         1.0       0.9594854323013341  0.550889484013175   0.6332884165500438 1.0000   
         C         C         1.0       0.9779987689360827  0.5665720448666901  0.632847917519133  1.0000   
         C         C         1.0       0.0005787343892689201         0.559135309538523  0.6407399870636208 1.0000   
         C         C         1.0       0.003622017977648939          0.5364548068826566 0.6485990059268578 1.0000   
         C         C         1.0       0.9947525209858583  0.6096438348464086  0.6110727697851687 1.0000   
         C         C         1.0       0.9947144474341241  0.6345684620322167  0.614105952698564  1.0000   
         C         C         1.0       0.010576368787612367          0.6476463565143524 0.5960327423098721 1.0000   
         C         C         1.0       0.025860558846132697          0.6363045078998616 0.5779998759224791 1.0000   
         C         C         1.0       0.02565943056639175           0.6110263924358939 0.5761362478019147 1.0000   
         C         C         1.0       0.009402011527484433          0.5977450905008185 0.5916756078246638 1.0000   
         C         C         1.0       0.9527849725020084  0.5816074195711557  0.5785754483448499 1.0000   
         C         C         1.0       0.9351186916644099  0.5829229444806898  0.558576839923969  1.0000   
         C         C         1.0       0.9201538414221051  0.6027230619309838  0.5583337210527152 1.0000   
         C         C         1.0       0.9230790505223997  0.6212418078791287  0.5784636798127896 1.0000   
         C         C         1.0       0.9395787024082458  0.6193467637622233  0.599390268919396  1.0000   
         C         C         1.0       0.9539941020099343  0.5988432185351575  0.6011084543881265 1.0000   
         H         H         1.0       0.9587704438578193  0.5670705247911939  0.23390467238783935          1.0000   
         H         H         1.0       0.9594028988274218  0.5790839661159068  0.14475723550758918          1.0000   
         H         H         1.0       0.948223643475517   0.5388776470842866  0.135119432400911  1.0000   
         H         H         1.0       0.9448769760267496  0.5257654550143029  0.22649303526173847          1.0000   
         H         H         1.0       0.005034841646978316          0.5996189978387959 0.15058590042823747          1.0000   
         H         H         1.0       0.043057611396087436          0.5912098846457253 0.15140644408301598          1.0000   
         H         H         1.0       0.03933291127086602           0.5751198768902449 0.23895575673743047          1.0000   
         H         H         1.0       0.9959927150950458  0.587330692266993   0.24094322483719266          1.0000   
         H         H         1.0       0.9256680723468774  0.6087102379480837  0.16156306187054909          1.0000   
         H         H         1.0       0.9249957330312718  0.6250360664399555  0.11502863154859723          1.0000   
         H         H         1.0       0.9879159107404417  0.6647462648798669  0.12955021389328733          1.0000   
         H         H         1.0       0.994739163912817   0.6422371838966479  0.17329345707253338          1.0000   
         H         H         1.0       0.9457686692428315  0.5164698024120475  0.639929860758852  1.0000   
         H         H         1.0       0.9414424745855796  0.5555638478714652  0.6277139411652565 1.0000   
         H         H         1.0       0.014123743898992513          0.5723306240393085 0.6424744747056241 1.0000   
         H         H         1.0       0.020886220019673774          0.5285540279560605 0.6531195997749598 1.0000   
         H         H         1.0       0.9819814500123318  0.6441074480001127  0.627676248839412  1.0000   
         H         H         1.0       0.009770544381746182          0.6671139062245055 0.5953257480288635 1.0000   
         H         H         1.0       0.036155171388438934          0.6036344544454086 0.5602314656820327 1.0000   
         H         H         1.0       0.0083555908040156  0.5789574198056348  0.5857669138770724 1.0000   
         H         H         1.0       0.9656652732650804  0.5661431551875173  0.5771536486417459 1.0000   
         H         H         1.0       0.9332980622129724  0.5675510851077934  0.5433167766603357 1.0000   
         H         H         1.0       0.8896030929524622  0.6794867422073153  0.07074711751125973          1.0000   
         H         H         1.0       0.9217758282318423  0.6683730075629822  0.09900829572408912          1.0000   
         C         C         1.0       0.010773729702469481          0.6320491959613295 0.5135146925732558 1.0000   
         C         C         1.0       0.025181410337050902          0.6278803792326999 0.49010671722327737          1.0000   
         C         C         1.0       0.020146356261190324          0.6082754021106639 0.4726226116928788 1.0000   
         C         C         1.0       0.0036309980019824106         0.5906155752283678 0.4803639979519398 1.0000   
         C         C         1.0       0.9874699468240811  0.5966406450188549  0.5028628285928357 1.0000   
         C         C         1.0       0.9917906193099436  0.6171561578548104  0.5188957424521284 1.0000   
         H         H         1.0       0.038666064599647276          0.64092826000883   0.482285212963621  1.0000   
         H         H         1.0       0.03109838728031855           0.6059361405324288 0.45332125450587646          1.0000   
         H         H         1.0       0.9725377385307419  0.5852013568431542  0.5083614595121086 1.0000   
         H         H         1.0       0.9802395213578955  0.6205189605838836  0.5373673584364167 1.0000   
         C         C         1.0       0.9984397829082009  0.5411861144420803  0.5127732418787622 1.0000   
         C         C         1.0       0.000945249846449725          0.5404395019922225 0.48355960712599494          1.0000   
         C         C         1.0       0.9956935870408227  0.519224248062635   0.46989062045785146          1.0000   
         C         C         1.0       0.9880259020607052  0.49951219646065914           0.48415504324844283          1.0000   
         C         C         1.0       0.9816755868851939  0.5013867785644351  0.5123650285692438 1.0000   
         C         C         1.0       0.9870962993785787  0.5220918305163409  0.5263968130571028 1.0000   
         C         C         1.0       0.0028813819497595095         0.565280063457466  0.4647422049570389 1.0000   
         C         C         1.0       0.028819795443414398          0.5594014788794781 0.4475346792939285 1.0000   
         C         C         1.0       0.030591912324561266          0.5561251248156507 0.4178677189083731 1.0000   
         C         C         1.0       0.052723612839272294          0.558362660810036  0.4048710227155444 1.0000   
         C         C         1.0       0.07289629304860212           0.5647495831581159 0.4206631771173416 1.0000   
         C         C         1.0       0.07080694930195097           0.5645873730088257 0.4499280926244408 1.0000   
         C         C         1.0       0.04988431095580537           0.5614452026921866 0.46372741614899016          1.0000   
         C         C         1.0       0.9573320366379232  0.5608243034521185  0.45788137715952587          1.0000   
         C         C         1.0       0.936347880271957   0.5648603793551799  0.44656146406240366          1.0000   
         C         C         1.0       0.9347387102928255  0.5757908044388136  0.4192883121309014 1.0000   
         C         C         1.0       0.956607006526429   0.5839863999412428  0.4068960063747264 1.0000   
         C         C         1.0       0.9785634397829974  0.5812823449789168  0.42066391645976   1.0000   
         C         C         1.0       0.9792106369576855  0.5676265588879503  0.44556714346541665          1.0000   
         C         C         1.0       0.9109929159808371  0.5743154228698852  0.40092256965215667          1.0000   
         C         C         1.0       0.9151815511166851  0.49585560013643143           0.3784741492627766 1.0000   
         C         C         1.0       0.9049144716914449  0.504283276012156   0.40321917600453366          1.0000   
         C         C         1.0       0.9051231059464667  0.5284624916691332  0.40931055202200284          1.0000   
         C         C         1.0       0.9125573266998693  0.5457359118324513  0.3899434023373493 1.0000   
         C         C         1.0       0.9238470822532718  0.535660533439277   0.3658191840148531 1.0000   
         C         C         1.0       0.9255188214438356  0.5112186864475524  0.35936538297078113          1.0000   
         C         C         1.0       0.9087133637775963  0.5938787494329041  0.3765787521485554 1.0000   
         C         C         1.0       0.918303876420814   0.6160488480239796  0.37769279253758037          1.0000   
         C         C         1.0       0.9164463832997657  0.632924442828817   0.35557597685201364          1.0000   
         C         C         1.0       0.9027326458740144  0.6268762981677125  0.3314386515517184 1.0000   
         C         C         1.0       0.8924844490964782  0.603939152965692   0.33013521920860894          1.0000   
         C         C         1.0       0.8947354181773344  0.58817070633198    0.35190610813315176          1.0000   
         C         C         1.0       0.8645254620393831  0.5719211154076617  0.4095415590563479 1.0000   
         C         C         1.0       0.8447302083862935  0.5739106019111039  0.42697299979433656          1.0000   
         C         C         1.0       0.8465742557259075  0.5884874355168123  0.4515916641338471 1.0000   
         C         C         1.0       0.8672205346898942  0.601310981950248   0.45722830770697775          1.0000   
         C         C         1.0       0.8871184121030791  0.5964100508084869  0.4419463354831605 1.0000   
         C         C         1.0       0.8867483033314766  0.5804151431455467  0.418248239965398  1.0000   
         H         H         1.0       0.0045065923514193695         0.5566031038855745 0.5251121534722452 1.0000   
         H         H         1.0       0.9962782863512688  0.5175623246295827  0.4480063958721349 1.0000   
         H         H         1.0       0.9823911594398442  0.4833758396997927  0.47310681973708657          1.0000   
         H         H         1.0       0.9837911967674091  0.5234992225639253  0.5479070458155894 1.0000   
         H         H         1.0       0.014501800910654339          0.5530292689987099 0.4054994641138944 1.0000   
         H         H         1.0       0.05208365492925204           0.5550454921851272 0.38236264922722396          1.0000   
         H         H         1.0       0.08683002277296259           0.5702732338018285 0.4617344343036897 1.0000   
         H         H         1.0       0.04948297485586828           0.563962042197109  0.48520519285076247          1.0000   
         H         H         1.0       0.9551511176428713  0.5522474777723306  0.47764117759906427          1.0000   
         H         H         1.0       0.9194403381841985  0.5589791827708305  0.4554594787533858 1.0000   
         H         H         1.0       0.9574460988561352  0.5925241282409818  0.38679695808706477          1.0000   
         H         H         1.0       0.9937249537080081  0.589362779752095   0.4123788887048707 1.0000   
         H         H         1.0       0.9010873417614028  0.49190356852234596           0.41994038042425924          1.0000   
         H         H         1.0       0.8975112130457833  0.5348459574861367  0.4296513933350805 1.0000   
         H         H         1.0       0.9320195939422675  0.5492037392140507  0.35226417443069663          1.0000   
         H         H         1.0       0.9375924632638293  0.5055689506416339  0.3424229304994212 1.0000   
         H         H         1.0       0.9282625012334655  0.6245573218921943  0.3950727537546531 1.0000   
         H         H         1.0       0.9258569159447125  0.6504241070996878  0.3618311166794667 1.0000   
         H         H         1.0       0.8810016687262697  0.5980885576955739  0.31300261568951737          1.0000   
         H         H         1.0       0.8881055835959719  0.5706232142067527  0.3488822503949521 1.0000   
         H         H         1.0       0.8649203683866264  0.558605397061631   0.3920017004731943 1.0000   
         H         H         1.0       0.826841934882641   0.5676230257244497  0.41901971571999835          1.0000   
         H         H         1.0       0.8685782530870442  0.6123439216999086  0.47780799556328457          1.0000   
         H         H         1.0       0.9028127195196304  0.6077101104405864  0.44710713933225915          1.0000   
         C         C         1.0       0.10687451550730889           0.5671902688787163 0.29659808610636273          1.0000   
         C         C         1.0       0.13107857636827508           0.5640096742823741 0.3022145619325885 1.0000   
         C         C         1.0       0.14755471215251845           0.5811474155199553 0.29331181120110694          1.0000   
         C         C         1.0       0.1405485705224112  0.6011446225491015  0.27713407529963807          1.0000   
         C         C         1.0       0.11621064174078484           0.604734939094956  0.2742166314366014 1.0000   
         C         C         1.0       0.09969388184003855           0.5872392636725928 0.28332961134096685          1.0000   
         H         H         1.0       0.1376271593031321  0.5491204199754728  0.3122509646059432 1.0000   
         H         H         1.0       0.16607831446645363           0.5772740337138392 0.2955594519814205 1.0000   
         H         H         1.0       0.10981700477131144           0.6186974115002056 0.26013023383636025          1.0000   
         H         H         1.0       0.0798196548643863  0.5900367413897811  0.280733405636301  1.0000   
         C         C         1.0       0.1544260110687338  0.6608152341971244  0.2371214904431697 1.0000   
         C         C         1.0       0.14894006815957142           0.6470809547974979 0.26071239900727045          1.0000   
         C         C         1.0       0.13722154215049445           0.6579502816025052 0.28388197331684767          1.0000   
         C         C         1.0       0.13025131413024196           0.681113284809081  0.2826802517641236 1.0000   
         C         C         1.0       0.13819789302198826           0.6959309846904115 0.26140629135543014          1.0000   
         C         C         1.0       0.14822862738395123           0.6846305389568731 0.23782742581247268          1.0000   
         C         C         1.0       0.15873704380801532           0.6199389826539096 0.2640798638369877 1.0000   
         C         C         1.0       0.16891468920785035           0.6055691753076291 0.23778457159459696          1.0000   
         C         C         1.0       0.18891404448470797           0.5896003811562183 0.23920507604519423          1.0000   
         C         C         1.0       0.19616228560578006           0.5751353424180623 0.21697968882543156          1.0000   
         C         C         1.0       0.18462086723090915           0.5764305659159871 0.1914555846047253 1.0000   
         C         C         1.0       0.16488157690499142           0.5918410000852673 0.188779891923216  1.0000   
         C         C         1.0       0.1562605893226552  0.6053215716283827  0.21229927329790882          1.0000   
         C         C         1.0       0.18078974776157203           0.6249691485930807 0.31268435310608966          1.0000   
         C         C         1.0       0.20076146047550042           0.6290287258464509 0.32892726135519784          1.0000   
         C         C         1.0       0.2201148869917752  0.6416223062400761  0.31705501488296645          1.0000   
         C         C         1.0       0.22038505125984098           0.6472064798649891 0.28850704165930785          1.0000   
         C         C         1.0       0.20097354133719486           0.6406226964834045 0.2723969921979225 1.0000   
         C         C         1.0       0.18113320344103423           0.6284269512242733 0.28436393886403066          1.0000   
         C         C         1.0       0.2410965634678113  0.6485206708848286  0.33956534439667485          1.0000   
         C         C         1.0       0.19856464700913662           0.707629474604311  0.3759872482944687 1.0000   
         C         C         1.0       0.19926901295579835           0.6868429826199121 0.39058409561398344          1.0000   
         C         C         1.0       0.21370231231836978           0.6686987482617966 0.379796809671806  1.0000   
         C         C         1.0       0.22859609868918107           0.6718394707704494 0.35547534971899325          1.0000   
         C         C         1.0       0.22745560000623807           0.6934308992740734 0.3413851023807896 1.0000   
         C         C         1.0       0.2115823401398628  0.7104192032835027  0.3508541918347342 1.0000   
         C         C         1.0       0.2662097586720869  0.6547521237415129  0.3251208337772483 1.0000   
         C         C         1.0       0.27620031046380644           0.6396839446954419 0.3034570172317593 1.0000   
         C         C         1.0       0.2991037070179951  0.6422840379656588  0.2934279698901094 1.0000   
         C         C         1.0       0.31414191612126313           0.6566712048487564 0.30892277972133675          1.0000   
         C         C         1.0       0.3053024932502907  0.6687070509141626  0.33332111775359297          1.0000   
         C         C         1.0       0.28131589530833945           0.6706080263962985 0.3376896763282655 1.0000   
         C         C         1.0       0.2605851451001267  0.6347474990973545  0.38522334438210604          1.0000   
         C         C         1.0       0.26816946981168727           0.6188153399687488 0.40445858281002023          1.0000   
         C         C         1.0       0.2664933311841417  0.5948513487859656  0.3981697199356395 1.0000   
         C         C         1.0       0.25358583137376545           0.5872220146893252 0.37327110477873077          1.0000   
         C         C         1.0       0.2453632667732812  0.6040069827296161  0.35474566805330626          1.0000   
         C         C         1.0       0.24754967504224681           0.6284779678463823 0.36129998489837023          1.0000   
         H         H         1.0       0.16329980289273843           0.654659239569415  0.21754956321146982          1.0000   
         H         H         1.0       0.13337187460139344           0.6476775201677182 0.3038004311062805 1.0000   
         H         H         1.0       0.12198117640994625           0.6915485133476336 0.3000424269355023 1.0000   
         H         H         1.0       0.15380023658436284           0.6964082227738697 0.22008102047809525          1.0000   
         H         H         1.0       0.19902307558037852           0.5887599484760395 0.25924551364217846          1.0000   
         H         H         1.0       0.21225418905360677           0.5643021529587946 0.21520420574981242          1.0000   
         H         H         1.0       0.15521548652946376           0.5933547185155176 0.16919237628291342          1.0000   
         H         H         1.0       0.14042043936281598           0.6160002784010604 0.21132377774317998          1.0000   
         H         H         1.0       0.16320569444133362           0.6208992793383487 0.3235358305335    1.0000   
         H         H         1.0       0.20123517543208058           0.6238032281490598 0.35120807490698003          1.0000   
         H         H         1.0       0.23568827746028054           0.6557311360775971 0.27752347704023506          1.0000   
         H         H         1.0       0.19939210349757683           0.6488398561653896 0.2516474237158238 1.0000   
         H         H         1.0       0.18961106527007693           0.6839054004723535 0.4108413057676739 1.0000   
         H         H         1.0       0.21446370335057338           0.6519942151901339 0.39034164805383603          1.0000   
         H         H         1.0       0.2381101890405373  0.6971343725035393  0.32316005777617374          1.0000   
         H         H         1.0       0.21070505311468962           0.7273855810175105 0.34020023288503065          1.0000   
         H         H         1.0       0.26646049953325623           0.6246490414397173 0.29421759719554297          1.0000   
         H         H         1.0       0.3056647595299111  0.6301207093041479  0.27692317118025805          1.0000   
         H         H         1.0       0.31944449200829733           0.6782058795205821 0.3464164820817751 1.0000   
         H         H         1.0       0.2751728204649981  0.6802412734426504  0.35622940811002757          1.0000   
         H         H         1.0       0.2670707780962099  0.6537052973515207  0.3903802276210626 1.0000   
         H         H         1.0       0.2799576600127384  0.6256728910822767  0.42004290371127795          1.0000   
         H         H         1.0       0.2511663811852296  0.5676484020362178  0.3702315336251707 1.0000   
         H         H         1.0       0.23701581865080032           0.5975906422438225 0.33532181992332716          1.0000   
         C         C         1.0       0.131916694141486   0.5974546780213928  0.5477779455031975 1.0000   
         C         C         1.0       0.14923102498297483           0.5815448739047949 0.5441948778073088 1.0000   
         C         C         1.0       0.1719054087359929  0.5889033159706457  0.5344724860631225 1.0000   
         C         C         1.0       0.17660076013660161           0.6128483004849344 0.5260862021556585 1.0000   
         C         C         1.0       0.15939143303732453           0.6289241411201664 0.5324034690124914 1.0000   
         C         C         1.0       0.13720965172709923           0.6220292840216992 0.5434390607358515 1.0000   
         H         H         1.0       0.14510544293158795           0.562852148068061  0.5475491776467555 1.0000   
         H         H         1.0       0.18581095306724013           0.5758633296173072 0.5319948096142455 1.0000   
         H         H         1.0       0.16318288996147787           0.6482388323634732 0.5259916170147537 1.0000   
         H         H         1.0       0.12434374186677769           0.6362856901554516 0.5460622357009398 1.0000   
         C         C         1.0       0.17674851325247287           0.6354992880598596 0.46749710050496895          1.0000   
         C         C         1.0       0.19521122083474962           0.640558838268351  0.4860818298127067 1.0000   
         C         C         1.0       0.20523133557030165           0.6640949660087245 0.4861049532442934 1.0000   
         C         C         1.0       0.1911912765124371  0.6821825829810906  0.4744903996573085 1.0000   
         C         C         1.0       0.16953895193776616           0.6763359812410197 0.4610642935588969 1.0000   
         C         C         1.0       0.16283145224509332           0.6525798455588231 0.4559906802221394 1.0000   
         C         C         1.0       0.20148094350760604           0.6219173055985956 0.5116934033629101 1.0000   
         C         C         1.0       0.2168786860446904  0.6026936021514722  0.493165889962342  1.0000   
         C         C         1.0       0.24131900373289397           0.6102582723933185 0.4885565974477496 1.0000   
         C         C         1.0       0.2556713203906511  0.5956865689094908  0.4721879456950858 1.0000   
         C         C         1.0       0.2468841690556268  0.5750705773361484  0.45765422997460503          1.0000   
         C         C         1.0       0.22241275493606907           0.5701142684383362 0.45853358217584184          1.0000   
         C         C         1.0       0.20890368453766378           0.5819862747660028 0.4783433748563313 1.0000   
         C         C         1.0       0.21238833150190994           0.6543853998832218 0.5500428993535104 1.0000   
         C         C         1.0       0.2589224467532866  0.6753580732790953  0.09659588062630177          1.0000   
         C         C         1.0       0.2708719923179428  0.6609184709744206  0.11420670192871776          1.0000   
         C         C         1.0       0.2889875433651338  0.6473231581481332  0.10251018635798734          1.0000   
         C         C         1.0       0.2289690167478572  0.6153253942519733  0.5545102077070563 1.0000   
         C         C         1.0       0.21454731732179766           0.6314238384254032 0.5389639109048553 1.0000   
         C         C         1.0       0.2642746189740099  0.6589123229988538  0.14780696594128354          1.0000   
         C         C         1.0       0.21116807668693183           0.7125043393071921 0.17056020920347298          1.0000   
         C         C         1.0       0.20731512136381372           0.6887578125147856 0.17461065066773782          1.0000   
         C         C         1.0       0.22473117226960285           0.6721088236814169 0.17031855024591866          1.0000   
         C         C         1.0       0.2463664827292229  0.6786734234792765  0.15904241198897237          1.0000   
         C         C         1.0       0.2519190631763422  0.7027213755889007  0.1575896894956594 1.0000   
         C         C         1.0       0.23416252074607682           0.7197249669002167 0.1624634338235944 1.0000   
         C         C         1.0       0.28656141852924844           0.6638920164106613 0.1690465529662883 1.0000   
         C         C         1.0       0.3073072369632511  0.6748869367741528  0.1588920651159376 1.0000   
         C         C         1.0       0.32643005399281105           0.6764307260399951 0.17662623344219763          1.0000   
         C         C         1.0       0.3262347078582038  0.6674243377683585  0.20223721470499376          1.0000   
         C         C         1.0       0.30595772109980257           0.655451906595554  0.21232791605128137          1.0000   
         C         C         1.0       0.28566944739902683           0.6544374411117512 0.19668659256198698          1.0000   
         C         C         1.0       0.2659906635880995  0.6110862510203161  0.15654145014624535          1.0000   
         C         C         1.0       0.25500063365298803           0.5887352911465851 0.15672928053896146          1.0000   
         C         C         1.0       0.2313077969791831  0.586472055120647   0.14861429521315073          1.0000   
         C         C         1.0       0.22032740515564173           0.6051276859009828 0.13439288544009406          1.0000   
         C         C         1.0       0.23210548411514006           0.6267371795610589 0.13328512060458209          1.0000   
         C         C         1.0       0.2538903647853047  0.6313837144514448  0.1457224259377806 1.0000   
         H         H         1.0       0.1690387844074145  0.6171811466403944  0.46713645158093425          1.0000   
         H         H         1.0       0.22063388868885647           0.6696646946912358 0.4977443584220781 1.0000   
         H         H         1.0       0.19584314454147822           0.7007480253540306 0.48177242809818444          1.0000   
         H         H         1.0       0.14639321335540098           0.6467870868258695 0.44497340770417576          1.0000   
         H         H         1.0       0.24907058635811927           0.6260266903677184 0.4975750339833849 1.0000   
         H         H         1.0       0.2743626774483301  0.6017844268345081  0.46976362700630064          1.0000   
         H         H         1.0       0.21535048759720873           0.5577890333815225 0.4426232203411361 1.0000   
         H         H         1.0       0.1894261888156248  0.5794631682749112  0.4821278224596443 1.0000   
         H         H         1.0       0.20004538142744197           0.6669606165247132 0.5421257892401093 1.0000   
         H         H         1.0       0.2450640563772672  0.6858512952136973  0.10338805431869105          1.0000   
         H         H         1.0       0.29598576612966493           0.6332358002002462 0.1146209583369724 1.0000   
         H         H         1.0       0.23278412371181018           0.5966574806686492 0.5475193847134794 1.0000   
         H         H         1.0       0.18935874392042898           0.6816360577466656 0.1815218139202469 1.0000   
         H         H         1.0       0.21980198432279266           0.6537724608111288 0.1741208934664219 1.0000   
         H         H         1.0       0.26961623227920634           0.7074340857628335 0.14864653424396054          1.0000   
         H         H         1.0       0.23632654807817297           0.7383196341581199 0.15802928192943128          1.0000   
         H         H         1.0       0.30833433679568595           0.6832846904147648 0.1378094036813678 1.0000   
         H         H         1.0       0.3411589253241331  0.6859888953447141  0.16783261587802262          1.0000   
         H         H         1.0       0.3053568445397927  0.6487234918320618  0.23498060890369052          1.0000   
         H         H         1.0       0.2693250774238962  0.6465938011022968  0.203266502970809  1.0000   
         H         H         1.0       0.28389031058158054           0.6137927199168769 0.16178774766755763          1.0000   
         H         H         1.0       0.26206801575022987           0.572681873009244  0.16694420027366727          1.0000   
         H         H         1.0       0.2020409516683701  0.6021816041950745  0.1268113193096559 1.0000   
         H         H         1.0       0.22507583432646536           0.6412376534730978 0.1199695327680098 1.0000   
         C         C         1.0       0.06889976062973457           0.6491970094318894 0.050462897593419154         1.0000   
         C         C         1.0       0.06309942980217409           0.6366561488892644 0.07471917337289802          1.0000   
         C         C         1.0       0.06418852186437607           0.6472177085252845 0.10083954605617797          1.0000   
         C         C         1.0       0.07574623600696004           0.6689715783125884 0.10493751918581455          1.0000   
         C         C         1.0       0.07927156809377851           0.6834887867762544 0.08059745754407666          1.0000   
         C         C         1.0       0.07573965240511643           0.672417633151404  0.05433163893042425          1.0000   
         H         H         1.0       0.0580326315016646  0.6174151561656354  0.07394283410985247          1.0000   
         H         H         1.0       0.05893065303707323           0.6355728041871143 0.11755031912682455          1.0000   
         H         H         1.0       0.08875146361487055           0.7007391272099728 0.08228245576440307          1.0000   
         H         H         1.0       0.07754101602020151           0.6840769330100537 0.036134096227794066         1.0000   
         C         C         1.0       0.12747481024814575           0.6888229436122477 0.11944859718966644          1.0000   
         C         C         1.0       0.1085285405300939  0.690189616996503   0.1391879806810808 1.0000   
         C         C         1.0       0.11332855647325843           0.70404680828018   0.16365118378128576          1.0000   
         C         C         1.0       0.13223507790473082           0.7201798188797676 0.16479973914139462          1.0000   
         C         C         1.0       0.15157751425274774           0.717181314338113  0.14555233224274952          1.0000   
         C         C         1.0       0.1488255023300302  0.7005932379811026  0.12357741218686245          1.0000   
         C         C         1.0       0.08384794326020431           0.6765523212040996 0.13607329789701028          1.0000   
         C         C         1.0       0.08665277695456673           0.6558759144307229 0.15959658800797683          1.0000   
         C         C         1.0       0.0798860053447703  0.6568862422698358  0.18856477834605753          1.0000   
         C         C         1.0       0.08028204285940799           0.6368263278241107 0.2049459379442311 1.0000   
         C         C         1.0       0.08835246857490553           0.6155851626588827 0.19360054323974887          1.0000   
         C         C         1.0       0.10105181001128827           0.6160618953990991 0.16745246863841082          1.0000   
         C         C         1.0       0.10056717010854666           0.6365263966861142 0.1507757881799804 1.0000   
         C         C         1.0       0.06616790268901962           0.7190546734987977 0.13567005969566096          1.0000   
         C         C         1.0       0.05408450969778844           0.7367338262540221 0.15067597582034561          1.0000   
         C         C         1.0       0.03810435958609881           0.7302439375658907 0.17231566011846358          1.0000   
         C         C         1.0       0.03137502855539931           0.705320308162882  0.17329373876554877          1.0000   
         C         C         1.0       0.04218533509789669           0.6878579379076569 0.15719390929918764          1.0000   
         C         C         1.0       0.0629210618950029  0.6943789650743127  0.14230913397603231          1.0000   
         C         C         1.0       0.0341038481521112  0.749282270584365   0.1992642353215036 1.0000   
         C         C         1.0       0.09870076786767919           0.7392574173694065 0.2476682817959814 1.0000   
         C         C         1.0       0.09910627032873706           0.7560770390180452 0.22641344451931772          1.0000   
         C         C         1.0       0.08013619199718952           0.7563420962030567 0.20850284067273617          1.0000   
         C         C         1.0       0.05902740922951443           0.7446007781321787 0.2147566656063519 1.0000   
         C         C         1.0       0.06039348630672858           0.7253677841454109 0.23164881445952742          1.0000   
         C         C         1.0       0.07948901328457171           0.7242311094538956 0.2490863337031966 1.0000   
         C         C         1.0       0.012528899279535153          0.7457959050874488 0.22192560885926502          1.0000   
         C         C         1.0       0.9925577595722496  0.7323636188222991  0.2176870648126623 1.0000   
         C         C         1.0       0.9791245609871357  0.7244620070520172  0.24048600990243446          1.0000   
         C         C         1.0       0.9850924656691222  0.732346983795402   0.2680584234865114 1.0000   
         C         C         1.0       0.002956633022370258          0.7502853270602292 0.27083739223020475          1.0000   
         C         C         1.0       0.01479464987179413           0.7575345580183507 0.24744129380520313          1.0000   
         C         C         1.0       0.03852088185040104           0.7971445908302676 0.20015778474314228          1.0000   
         C         C         1.0       0.034100686738534496          0.819349834891394  0.18813492904307794          1.0000   
         C         C         1.0       0.021679262618033324          0.8200187584325446 0.1635202675324388 1.0000   
         C         C         1.0       0.011384991164409053          0.7990127823083947 0.1518761165734214 1.0000   
         C         C         1.0       0.015016683754141003          0.7773816480094963 0.16417323844708337          1.0000   
         C         C         1.0       0.030598017966805502          0.7754131003137252 0.1877189987031609 1.0000   
         H         H         1.0       0.12533456770077644           0.6774572581601046 0.10060817546320222          1.0000   
         H         H         1.0       0.10009657109599253           0.7043195368231218 0.17910963326283638          1.0000   
         H         H         1.0       0.1310566233258514  0.7331578869349189  0.1831444212392814 1.0000   
         H         H         1.0       0.16243155905955475           0.6980833514076503 0.10863733079324187          1.0000   
         H         H         1.0       0.07398426611987596           0.6740363664692498 0.19730294489718161          1.0000   
         H         H         1.0       0.07110998867883622           0.634910340511473  0.2257610534369903 1.0000   
         H         H         1.0       0.10833069858498834           0.5989022451614606 0.1571467841591414 1.0000   
         H         H         1.0       0.10788419814669616           0.634879822374269  0.1286653063497405 1.0000   
         H         H         1.0       0.08057439925552165           0.7247994211643232 0.12249541406901382          1.0000   
         H         H         1.0       0.05834586134214059           0.7554130995799425 0.1484798218657525 1.0000   
         H         H         1.0       0.018684191879064782          0.6985840567215492 0.1884134825980106 1.0000   
         H         H         1.0       0.038109168254048864          0.6686233960530146 0.16126840982400453          1.0000   
         H         H         1.0       0.11516518681763259           0.7681120200282993 0.22563260466501414          1.0000   
         H         H         1.0       0.07972220931422858           0.7681992512432875 0.19143351259004207          1.0000   
         H         H         1.0       0.0435525847095255  0.7143606833310384  0.23573654659796933          1.0000   
         H         H         1.0       0.07914995169878435           0.7126650769972582 0.26711515577143685          1.0000   
         H         H         1.0       0.9919098632489489  0.7269216966121591  0.19624209683051835          1.0000   
         H         H         1.0       0.9657832043263787  0.7110583431152738  0.2388345078791595 1.0000   
         H         H         1.0       0.00989241726464818           0.7538491212205402 0.2921043923439576 1.0000   
         H         H         1.0       0.029207443680949297          0.7688370540309455 0.2507485693929677 1.0000   
         H         H         1.0       0.04771775923854472           0.7973334262222843 0.21936643321321947          1.0000   
         H         H         1.0       0.0417055283551826  0.8348890264823959  0.1983856510049732 1.0000   
         H         H         1.0       0.0006713392137276397         0.8007761297611572 0.13330315782658173          1.0000   
         H         H         1.0       0.006154123844142933          0.7616430444936547 0.15529117950030796          1.0000   
         C         C         1.0       0.008269382438767847          0.6990683489277468 0.32882826839028423          1.0000   
         C         C         1.0       0.011170985480961848          0.6785202693067515 0.34395704019286216          1.0000   
         C         C         1.0       0.029422860103447857          0.6748950472630548 0.3631182766790899 1.0000   
         C         C         1.0       0.04589126521658771           0.6924659702447763 0.3684571724047483 1.0000   
         C         C         1.0       0.044189083879173634          0.7140155077338745 0.3527049667056855 1.0000   
         C         C         1.0       0.02494930944561191           0.7177180570823746 0.3335156570041026 1.0000   
         H         H         1.0       0.9964221176999866  0.6648593885080168  0.34106110869891587          1.0000   
         H         H         1.0       0.029662641725847205          0.6586538136278471 0.3761235684500019 1.0000   
         H         H         1.0       0.05632191345149674           0.7285542597381836 0.3566641966888843 1.0000   
         H         H         1.0       0.02148882397205876           0.735477700815174  0.32448340013146265          1.0000   
         C         C         1.0       0.10194346677124533           0.702292683006788  0.3600867934289534 1.0000   
         C         C         1.0       0.09232881555139107           0.7036850860955935 0.38707914972360674          1.0000   
         C         C         1.0       0.1069641338003525  0.7118023827872315  0.40887419018752563          1.0000   
         C         C         1.0       0.12910028752271377           0.721140622504096  0.40227571633904385          1.0000   
         C         C         1.0       0.13901915917412666           0.7210260604551266 0.37520476745135056          1.0000   
         C         C         1.0       0.12393348849493453           0.7118176499922125 0.35370994442493653          1.0000   
         C         C         1.0       0.06619598750580846           0.6922983032326631 0.3926694473634142 1.0000   
         C         C         1.0       0.07510297571387459           0.664896093655968  0.40109508553281514          1.0000   
         C         C         1.0       0.08169745253248166           0.6586285927781348 0.4281119849363884 1.0000   
         C         C         1.0       0.09273590205302296           0.6372071647532024 0.4329496271005276 1.0000   
         C         C         1.0       0.09699144139099491           0.6211072365650278 0.41106787198678135          1.0000   
         C         C         1.0       0.09297904621513253           0.6268352260007839 0.38264428784519444          1.0000   
         C         C         1.0       0.08140220709461639           0.6490057643847655 0.37882881743703894          1.0000   
         C         C         1.0       0.05294401415739691           0.7297223242452269 0.4203960963248913 1.0000   
         C         C         1.0       0.046141376025098824          0.7407289206399953 0.44540646596242117          1.0000   
         C         C         1.0       0.03639539718395279           0.7270701684340116 0.4666307410396766 1.0000   
         C         C         1.0       0.02960349030855514           0.7040139082237781 0.46085184437011323          1.0000   
         C         C         1.0       0.03690932275936998           0.6931263175362983 0.4356384939763822 1.0000   
         C         C         1.0       0.051106510560806624          0.7053890492309131 0.4170079106483032 1.0000   
         C         C         1.0       0.04174587014851183           0.7342139142962761 0.5000547272982703 1.0000   
         C         C         1.0       0.11468256733993114           0.704551221576958  0.4982567971539113 1.0000   
         C         C         1.0       0.11049013111639494           0.7281513909036885 0.49041941835558933          1.0000   
         C         C         1.0       0.08799198889254452           0.7379930578843862 0.4917743957667729 1.0000   
         C         C         1.0       0.06879632568539651           0.7230090025088844 0.5009839705287015 1.0000   
         C         C         1.0       0.07348253603463406           0.6999796922560254 0.5112709863968501 1.0000   
         C         C         1.0       0.09600817493246315           0.690024366096779  0.5069966801472582 1.0000   
         C         C         1.0       0.02103584794140967           0.725216855208512  0.5216433591214308 1.0000   
         C         C         1.0       0.9975496716318368  0.727510216269014   0.5152686385092333 1.0000   
         C         C         1.0       0.9806210725098943  0.7258911263900008  0.5356763855670619 1.0000   
         C         C         1.0       0.9864575475625259  0.7184193134099229  0.5621329807858797 1.0000   
         C         C         1.0       0.009620568691072863          0.7144535023020153 0.5681833460924457 1.0000   
         C         C         1.0       0.027440813997231975          0.7188294967736768 0.5487960830856242 1.0000   
         C         C         1.0       0.0598446406544344  0.7686146563022127  0.5314546472816166 1.0000   
         C         C         1.0       0.06177239815695179           0.7922707208414685 0.5398860019856514 1.0000   
         C         C         1.0       0.046559018477758014          0.8098316361468716 0.5283009423980043 1.0000   
         C         C         1.0       0.030525943327674332          0.8035423834112384 0.5090402378445567 1.0000   
         C         C         1.0       0.02868025596099    0.7793458681342177  0.49884712272265336          1.0000   
         C         C         1.0       0.04362585158232246           0.7617444089518958 0.509704043616409  1.0000   
         H         H         1.0       0.09070378092821543           0.696593248830865  0.3430941467573225 1.0000   
         H         H         1.0       0.1007215306431116  0.7156833562539657  0.43056319159408796          1.0000   
         H         H         1.0       0.13766229763199941           0.7306586462446336 0.4193385573811601 1.0000   
         H         H         1.0       0.12971999262174652           0.716278815670844  0.33147587308148574          1.0000   
         H         H         1.0       0.07914461546453713           0.6694962567053109 0.44674755938981725          1.0000   
         H         H         1.0       0.09616051169969309           0.6303126345038034 0.45481699624739885          1.0000   
         H         H         1.0       0.09582525503568129           0.614689338634037  0.364699893731257  1.0000   
         H         H         1.0       0.07748410836520009           0.6545411230955385 0.35680093969116516          1.0000   
         H         H         1.0       0.06123664311509125           0.7420503011893687 0.40605996477576534          1.0000   
         H         H         1.0       0.05124165810901271           0.7593509414655896 0.4478958864724572 1.0000   
         H         H         1.0       0.019206540545339656          0.692404511669412  0.4751172722661775 1.0000   
         H         H         1.0       0.03462257303669891           0.6736507128006572 0.43452880318972487          1.0000   
         H         H         1.0       0.12436862243863779           0.7377125131040949 0.48055978891398593          1.0000   
         H         H         1.0       0.0857919376767489  0.7552353697383677  0.4820478146234636 1.0000   
         H         H         1.0       0.05907937207363845           0.6876231889149531 0.5176614319582732 1.0000   
         H         H         1.0       0.09644049269338893           0.6712068802910724 0.5109089167862283 1.0000   
         H         H         1.0       0.9931297166485636  0.7365537681937253  0.49644222401444904          1.0000   
         H         H         1.0       0.9617563269023439  0.7282819075938549  0.530313049781755  1.0000   
         H         H         1.0       0.015593503553171573          0.7078085018128362 0.5885113565519885 1.0000   
         H         H         1.0       0.04626283938964271           0.720638322859964  0.554191013168094  1.0000   
         H         H         1.0       0.07183702036430684           0.7566539736939205 0.5426649556526455 1.0000   
         H         H         1.0       0.0735699225727804  0.7974887567160596  0.5567291619070086 1.0000   
         H         H         1.0       0.020654261161896725          0.8184038091340395 0.4989656145348969 1.0000   
         H         H         1.0       0.015603585404377006          0.7765607907348591 0.4824656551221298 1.0000   
         C         C         1.0       0.07171451518247696           0.6358579266716486 0.021228527562751287         1.0000   
         C         C         1.0       0.96794063784791    0.7101379857977989  0.5837041583751666 1.0000   
         H         H         1.0       0.9599585123990434  0.743890084149438   0.6042384637471558 1.0000   
         H         H         1.0       0.0652134484775857  0.6173500861942051  0.025416052868763694         1.0000   
         H         H         1.0       0.9499193346337982  0.7106365561804298  0.5725004766252896 1.0000   
         H         H         1.0       0.9699898929291846  0.6904379527290998  0.5889738777970664 1.0000   
         C         C         1.0       0.975094875434244   0.7209505688835702  0.29545485689099577          1.0000   
         C         C         1.0       0.9891439486835725  0.6988091659810971  0.305577475265024  1.0000   
         H         H         1.0       0.9550930756333326  0.7163540726367178  0.2914088344180921 1.0000   
         H         H         1.0       0.97410860763773    0.7343331351826237  0.3126538122864751 1.0000   
         H         H         1.0       0.9966708539866646  0.6882722119337943  0.2861868540153273 1.0000   
         H         H         1.0       0.9735287114848543  0.6876422048196864  0.31204000918286723          1.0000   
         C         C         1.0       0.1498475148214091  0.6947939639692029  0.46356953074098833          1.0000   
         C         C         1.0       0.13792116721641562           0.6922617959216124 0.4927420427200854 1.0000   
         H         H         1.0       0.13643245818670466           0.6890444354135838 0.44749951010480665          1.0000   
         H         H         1.0       0.1549598284066113  0.712829822080725   0.4577358956438588 1.0000   
         H         H         1.0       0.14933433168400956           0.6996606845343166 0.508324557512945  1.0000   
         H         H         1.0       0.1357049234561762  0.6724504072854597  0.4972119879325434 1.0000   
         C         C         1.0       0.1716588460052331  0.7347358784675488  0.14843570422313113          1.0000   
         C         C         1.0       0.18966706853000823           0.730933241910717  0.1727932844350447 1.0000   
         H         H         1.0       0.17847421225314808           0.7346119576749991 0.12734020139503277          1.0000   
         H         H         1.0       0.1665263274359149  0.75339067043943    0.1516352158790183 1.0000   
         H         H         1.0       0.19899781674650752           0.7474606633918708 0.17578676854040226          1.0000   
         H         H         1.0       0.179462587516406   0.7287636168485518  0.19275561362228366          1.0000   
         C         C         1.0       0.14075634161959022           0.7240709498538731 0.2633016721564711 1.0000   
         C         C         1.0       0.11792055353303318           0.73825813182546   0.27052546400687627          1.0000   
         H         H         1.0       0.154243604408294   0.7307378925482195  0.2776820873713041 1.0000   
         H         H         1.0       0.1465765303457892  0.7312283474191603  0.24352036700432036          1.0000   
         H         H         1.0       0.11007724202194308           0.7329038123828868 0.29107445593377407          1.0000   
         H         H         1.0       0.12481420083534345           0.7560551527611218 0.2774433469684472 1.0000   
         C         C         1.0       0.2798019049775779  0.5752725356887839  0.41600880857679795          1.0000   
         C         C         1.0       0.26265748463584376           0.5614211564964537 0.4369752924606025 1.0000   
         H         H         1.0       0.2896883087469255  0.5623845491583868  0.40116716028431426          1.0000   
         H         H         1.0       0.2970413167918109  0.5824516130218463  0.4251533368380168 1.0000   
         H         H         1.0       0.27447085840148244           0.550101754543024  0.4509577457175896 1.0000   
         H         H         1.0       0.25266708256328846           0.5494940701632962 0.42285060288887727          1.0000   
         C         C         1.0       0.19165945499291648           0.5621725062066155 0.1652303363328398 1.0000   
         C         C         1.0       0.21827527490210838           0.5623411296560897 0.15205521410273792          1.0000   
         H         H         1.0       0.18739516390090602           0.5431083841719747 0.16930046189273693          1.0000   
         H         H         1.0       0.17972173286612828           0.5640969878178068 0.14626721916215862          1.0000   
         H         H         1.0       0.22961555056849753           0.5484139297510184 0.1629241372236911 1.0000   
         H         H         1.0       0.21552423420393776           0.5550807621592406 0.12908667326807244          1.0000   
         C         C         1.0       0.16222256106706331           0.735599249966985  0.3679303338907829 1.0000   
         C         C         1.0       0.1825194066646678  0.7280899034797018  0.3877101839357298 1.0000   
         H         H         1.0       0.159104542216107   0.7546645668042656  0.3704504464802118 1.0000   
         H         H         1.0       0.16757734937693655           0.7348760501547652 0.3448798808804852 1.0000   
         H         H         1.0       0.17943251153764378           0.7263672374090482 0.412189003898191  1.0000   
         H         H         1.0       0.19429746576110885           0.7444206947334232 0.3860020939772798 1.0000   
         C         C         1.0       0.0966237162499104  0.5728146869949171  0.40590444150007815          1.0000   
         C         C         1.0       0.10890684141901219           0.5959495178644637 0.4183826982406545 1.0000   
         H         H         1.0       0.10861981468535586           0.5567366469875612 0.40332967604928155          1.0000   
         H         H         1.0       0.09084488941608959           0.5764999113780702 0.3840696063686126 1.0000   
         H         H         1.0       0.12748610374491776           0.598201301953106  0.4102922495947727 1.0000   
         H         H         1.0       0.11179205078163901           0.595105932817606  0.44003634354663007          1.0000   
         C         C         1.0       0.07061819763279509           0.5738793365575486 0.19793711174296288          1.0000   
         C         C         1.0       0.08796739597308134           0.5922643354634652 0.20953274439792757          1.0000   
         H         H         1.0       0.07297844644680662           0.5587771583526574 0.21399377435681027          1.0000   
         H         H         1.0       0.07762577798744807           0.5662572142973645 0.17759349643165318          1.0000   
         H         H         1.0       0.10692494288041354           0.5828482108496869 0.21027809501344014          1.0000   
         H         H         1.0       0.08433666107081184           0.594133542258365  0.232468796824012  1.0000   
         C         C         1.0       0.01560907705101533           0.6545491458394275 0.5322492543913037 1.0000   
         C         C         1.0       0.03594552610641277           0.6505195040239401 0.5536122876433455 1.0000   
         H         H         1.0       0.020916625835222247          0.669628625038918  0.5171528444570788 1.0000   
         H         H         1.0       0.9999424828195405  0.6597433624008964  0.5447878514143233 1.0000   
         H         H         1.0       0.04421328331635399           0.6672506847655474 0.5602464002089753 1.0000   
         H         H         1.0       0.05225429512340396           0.6392999459205282 0.5456136549437127 1.0000   
         C         C         1.0       0.9219908998443136  0.6538564990708965  0.29419113376404776          1.0000   
         C         C         1.0       0.8974174871051493  0.6463778426280263  0.3079102526851591 1.0000   
         H         H         1.0       0.9374708911176656  0.6543541222323666  0.30881664668662073          1.0000   
         H         H         1.0       0.9213400178107503  0.6730084472117478  0.2875800364395698 1.0000   
         H         H         1.0       0.8834801897141149  0.6406581725708833  0.2918424047825956 1.0000   
         H         H         1.0       0.889173838080663   0.663881159057139   0.3161831471468351 1.0000   
         C         C         1.0       0.09169306377351769           0.5875617153318713 0.529577461289469  1.0000   
         C         C         1.0       0.10708110541791137           0.5925088900544941 0.5562887001540794 1.0000   
         H         H         1.0       0.10054976872294068           0.5923605434844212 0.5093386072711543 1.0000   
         H         H         1.0       0.0753954702682732  0.5995804631317624  0.5277721602276764 1.0000   
         H         H         1.0       0.10645708886694752           0.5771091158057718 0.569398284244424  1.0000   
         H         H         1.0       0.09755737014369484           0.6073380921679931 0.5694667996286235 1.0000   
         C         C         1.0       0.9931156659952644  0.4744206772327289  0.6400420198076259 1.0000   
         C         C         1.0       0.9876288202641165  0.49402928136631086           0.662041057692042  1.0000   
         H         H         1.0       0.014814983024835193          0.5275267486103224 0.06969010824214616          1.0000   
         H         H         1.0       0.9950468431487758  0.457181846416316   0.6509859056633046 1.0000   
         H         H         1.0       0.0029408196632620953         0.4933953054578089 0.6756039224800886 1.0000   
         H         H         1.0       0.9723445764657243  0.4879102577602832  0.6753583582903676 1.0000   
         C         C         1.0       0.9633604966811931  0.4831096026137179  0.5262312397706947 1.0000   
         C         C         1.0       0.9624104315799044  0.4559237718939023  0.5191599937984495 1.0000   
         H         H         1.0       0.9458882373034315  0.49145913048168216           0.5219634905090629 1.0000   
         H         H         1.0       0.9663724471748436  0.4846487377471809  0.5489126118716359 1.0000   
         H         H         1.0       0.9560398768795718  0.45587159854760634           0.496520136988028  1.0000   
         H         H         1.0       0.9474871528296197  0.44725128181947504           0.5313790489804544 1.0000   
         C         C         1.0       0.09121412022012197           0.5464546013433672 0.3033302320805906 1.0000   
         C         C         1.0       0.08593136845122386           0.5438164366145974 0.3351295792048639 1.0000   
         H         H         1.0       0.07396767620565736           0.5463217441420729 0.2918255697244959 1.0000   
         H         H         1.0       0.10110406691747696           0.5293555892928734 0.2968419089025166 1.0000   
         H         H         1.0       0.0732927315866605  0.5574162400248464  0.3417926419467317 1.0000   
         H         H         1.0       0.10301077324016648           0.547995934193092  0.34640776540478646          1.0000   
         C         C         1.0       0.9326183987938264  0.45183238177515156           0.3878523767467029 1.0000   
         C         C         1.0       0.9146291133820387  0.4681988379937298  0.37109994644315064          1.0000   
         H         H         1.0       0.925611740347831   0.43389648988356744           0.38424090754585444          1.0000   
         H         H         1.0       0.9352115209149059  0.4547606741020459  0.4108440498527012 1.0000   
         H         H         1.0       0.9151244472122081  0.4647037206319612  0.3489382249414308 1.0000   
         H         H         1.0       0.8974917687946565  0.4627869589980806  0.37697853175158713          1.0000   
         C         C         1.0       0.09568737836193385           0.3813552251011019 0.3910681187665807 1.0000   
         C         C         1.0       0.08691476523730139           0.3600792855651497 0.4102910303707593 1.0000   
         H         H         1.0       0.10550487612117698           0.37587725226930513          0.3721998536308777 1.0000   
         H         H         1.0       0.10970848525657106           0.39075491035438187          0.40471163113621456          1.0000   
         H         H         1.0       0.10207617243100092           0.3481241124257273 0.4156529321322529 1.0000   
         H         H         1.0       0.07444938732862094           0.3470799592867962 0.39869432809571026          1.0000   
         C         C         1.0       0.1291542699666047  0.51361281143507    0.24509569973525808          1.0000   
         C         C         1.0       0.15084822044003365           0.5148037324666156 0.22472961551431545          1.0000   
         H         H         1.0       0.12307529200188516           0.5327110119274499 0.24748045908383798          1.0000   
         H         H         1.0       0.13612211854846953           0.5087997526071346 0.26652156682610195          1.0000   
         H         H         1.0       0.16034703259781186           0.5314403090416591 0.23027047667434586          1.0000   
         H         H         1.0       0.16321675608168343           0.49918844230605414          0.2272347892776909 1.0000   
         C         C         1.0       0.9388913821824982  0.5017334564496825  0.17492621746343792          1.0000   
         C         C         1.0       0.9583384263674743  0.4870544867195829  0.15707724781622134          1.0000   
         H         H         1.0       0.932162331532237   0.4933435825234315  0.19557385817405565          1.0000   
         H         H         1.0       0.9224430703725405  0.5022489929315572  0.1628988370644233 1.0000   
         H         H         1.0       0.9639252181012008  0.4968341372230395  0.13849518211363196          1.0000   
         H         H         1.0       0.9503100902374265  0.4701343109318546  0.14842765215463732          1.0000   
         C         C         1.0       0.6945394192080486  0.7536171818810473  0.4289521897002787 1.0000   
         C         C         1.0       0.6895698646721621  0.7376141007300783  0.45560663406877655          1.0000   
         H         H         1.0       0.7133629903395291  0.7512074632123673  0.42185585649352403          1.0000   
         H         H         1.0       0.6961269088921404  0.7731235583068823  0.4358207335713568 1.0000   
         H         H         1.0       0.6884470411397715  0.7190049567907046  0.4451593618875319 1.0000   
         H         H         1.0       0.7045629509550096  0.738132817367918   0.4711642197820874 1.0000   
         C         C         1.0       0.6388834792756236  0.8847425483894124  0.1780168120342771 1.0000   
         C         C         1.0       0.6488112309292586  0.8684886398643299  0.15487081768722039          1.0000   
         H         H         1.0       0.6244467556735839  0.894131327122966   0.16847422243902072          1.0000   
         H         H         1.0       0.6523652252410636  0.8978557733644909  0.185217097543307  1.0000   
         H         H         1.0       0.6668846387783451  0.863366453838959   0.16105396508831282          1.0000   
         H         H         1.0       0.6514200376829846  0.8774645092711968  0.1343150095052487 1.0000   
         C         C         1.0       0.35237852552117344           0.6353054075792329 0.3200501628426345 1.0000   
         C         C         1.0       0.34147558177744997           0.657245039204596  0.30435268907873264          1.0000   
         H         H         1.0       0.34261340318560235           0.6319124612249636 0.338573692733527  1.0000   
         H         H         1.0       0.34963173642548806           0.6190762990988036 0.3074855755119123 1.0000   
         H         H         1.0       0.3459859347575718  0.6578311643607673  0.2816355599937615 1.0000   
         H         H         1.0       0.3491272527079213  0.6739547870909847  0.3140920771505442 1.0000   
         C         C         1.0       0.5039941888788403  0.7088783750522429  0.5720684122334132 1.0000   
         C         C         1.0       0.5323427187769185  0.7066950683461384  0.5735861420132616 1.0000   
         H         H         1.0       0.49541202860381284           0.7018112201393651 0.5911767081075388 1.0000   
         H         H         1.0       0.49617192755514133           0.7277968083697703 0.5733740501337671 1.0000   
         H         H         1.0       0.5373461559830963  0.6882774414023374  0.5717920638218236 1.0000   
         H         H         1.0       0.540725503447092   0.7094238556725171  0.5947586641614069 1.0000   
         C         C         1.0       0.5224846698039102  0.7275549054641909  0.35052775062772495          1.0000   
         C         C         1.0       0.508598180862775   0.727262742814122   0.3211551814521607 1.0000   
         H         H         1.0       0.5204218161552926  0.7094994922930321  0.3589724164847105 1.0000   
         H         H         1.0       0.5136695849993402  0.7401918092060644  0.3635828420000091 1.0000   
         H         H         1.0       0.5213120241977518  0.7220179426392382  0.3032245288382828 1.0000   
         H         H         1.0       0.5013670785958834  0.7457976906630056  0.31533069683018566          1.0000   
         C         C         1.0       0.34776619557084965           0.6699618815044907 0.22316375541590078          1.0000   
         C         C         1.0       0.3700607295209911  0.6859222873590771  0.2177149391667764 1.0000   
         H         H         1.0       0.33922951127632417           0.679555373345332  0.24160070987400634          1.0000   
         H         H         1.0       0.35324736252872463           0.6524667968967306 0.23024105146193352          1.0000   
         H         H         1.0       0.37617345724887125           0.6951030943822697 0.23703007599464537          1.0000   
         H         H         1.0       0.36711023912884266           0.701895688925012  0.20391300919118904          1.0000   
         C         C         1.0       0.5634859304737282  0.723608207658055   0.25096709481356155          1.0000   
         C         C         1.0       0.5474784007516428  0.7427902203101294  0.23811320225139074          1.0000   
         H         H         1.0       0.566397150464678   0.7265527559268999  0.27414703465691953          1.0000   
         H         H         1.0       0.581567124447828   0.7278242528549649  0.24211969053028828          1.0000   
         H         H         1.0       0.5281968745955917  0.7403359556820501  0.24617606933008868          1.0000   
         H         H         1.0       0.5439060992199378  0.7400884868549155  0.2145508024640079 1.0000   
         C         C         1.0       0.3716261323685776  0.6143258112690058  0.5766542391823709 1.0000   
         C         C         1.0       0.3693969007673519  0.6131375436897609  0.5445867343066328 1.0000   
         H         H         1.0       0.3857035428731133  0.6020137745934634  0.5845622698290178 1.0000   
         H         H         1.0       0.3546252882074843  0.6077108061689551  0.5837690985358422 1.0000   
         H         H         1.0       0.35421495694525024           0.6255693813761538 0.5379549619233118 1.0000   
         H         H         1.0       0.36316193566809096           0.5961914570909908 0.5365603974153422 1.0000   
         C         C         1.0       0.521702512721204   0.5595435701581426  0.33137646214135114          1.0000   
         C         C         1.0       0.5199775736624904  0.5696800625229691  0.36244060401867184          1.0000   
         H         H         1.0       0.5053630524673101  0.5488205541269748  0.3255014368902399 1.0000   
         H         H         1.0       0.5354704977766397  0.5450773876492663  0.3314142735288406 1.0000   
         H         H         1.0       0.5370797448683495  0.5734939923496014  0.3706316905534108 1.0000   
         H         H         1.0       0.5150353761359044  0.5530354537822866  0.37542543187549476          1.0000   
         C         C         1.0       0.48936676041076793           0.772832226097215  0.14997162777120615          1.0000   
         C         C         1.0       0.47251896303248225           0.7545666343271455 0.13175017806290995          1.0000   
         H         H         1.0       0.48300353185965367           0.7740159008634224 0.17199472619223144          1.0000   
         H         H         1.0       0.4864976031436421  0.7920427142090888  0.14180111096646433          1.0000   
         H         H         1.0       0.4741843566418521  0.7765128489686679  0.5929008442245921 1.0000   
         H         H         1.0       0.4540146323515832  0.7609486551467776  0.12991692762646012          1.0000   
         C         C         1.0       0.8804193472077135  0.5922357209777069  0.5357953847831258 1.0000   
         C         C         1.0       0.9044873461875711  0.6060772334878666  0.5331667238727246 1.0000   
         H         H         1.0       0.8767439757481509  0.628384853089055   0.992356662963673  1.0000   
         H         H         1.0       0.8734001053838764  0.5880216247995359  0.5134318832622591 1.0000   
         H         H         1.0       0.9121849026900318  0.5990760906261133  0.5141559754791681 1.0000   
         H         H         1.0       0.901085971883447   0.6258806527802865  0.5306102521417561 1.0000   
         C         C         1.0       0.6825763832606391  0.761688568447006   0.6542229029888004 1.0000   
         C         C         1.0       0.6597348901646812  0.7521429596903837  0.6684786966629497 1.0000   
         H         H         1.0       0.6947613482024579  0.7625124523626676  0.6728096083806163 1.0000   
         H         H         1.0       0.6822452586338346  0.7810862917508213  0.6499617169799753 1.0000   
         H         H         1.0       0.64823299991485    0.6920173988895012  0.1808673742307447 1.0000   
         H         H         1.0       0.6571966906120829  0.7313490266722198  0.6627748020574831 1.0000   
         C         C         1.0       0.8202554419750868  0.6192051432983888  0.4820475674146534 1.0000   
         C         C         1.0       0.8259857434668231  0.5928896983718399  0.4734336144581002 1.0000   
         H         H         1.0       0.8359457601111212  0.6274442996625064  0.48979341359719963          1.0000   
         H         H         1.0       0.8109051018788759  0.6164804336451507  0.5022978030806606 1.0000   
         H         H         1.0       0.8283906360210204  0.5826796336538661  0.4933773179297925 1.0000   
         H         H         1.0       0.8100337339341582  0.5840399087232043  0.465150802079784  1.0000   
         C         C         1.0       0.6749603877229767  0.6754519852888343  0.23518813042624434          1.0000   
         C         C         1.0       0.6532089438043651  0.6700949760411131  0.25415910687421256          1.0000   
         H         H         1.0       0.6733310828454183  0.6621872955022169  0.2164663111889714 1.0000   
         H         H         1.0       0.6728134587196659  0.6940726264390131  0.2242423309714315 1.0000   
         H         H         1.0       0.6588308959850517  0.6534355246231525  0.2674046891225779 1.0000   
         H         H         1.0       0.6371686003827278  0.6637434768215432  0.24142467727596437          1.0000   
         C         C         1.0       0.7687462703857125  0.7683281368422902  0.45122002192436605          1.0000   
         C         C         1.0       0.7765892291054801  0.7722002664466568  0.48238163031740944          1.0000   
         H         H         1.0       0.7499759554818733  0.7728493836175618  0.44961234555593277          1.0000   
         H         H         1.0       0.7780025270800499  0.7823459110746386  0.43822573796955594          1.0000   
         H         H         1.0       0.7728925415621847  0.7910348867185553  0.4872289800172108 1.0000   
         H         H         1.0       0.7964450872364651  0.7690337446686529  0.4831602233043285 1.0000   
         C         C         1.0       0.8617278111212546  0.6582758805496681  0.1854226642509455 1.0000   
         C         C         1.0       0.8616045964881653  0.6548209858030265  0.21770308098891383          1.0000   
         H         H         1.0       0.8810322843854838  0.6562499962606365  0.17775565755257836          1.0000   
         H         H         1.0       0.8561408670150804  0.6775529556940579  0.18176196559156502          1.0000   
         H         H         1.0       0.8704114214633965  0.6387416753988086  0.22263205805244804          1.0000   
         H         H         1.0       0.8717704193729098  0.6689962633519059  0.22864278588892842          1.0000   
         C         C         1.0       0.5498946399661885  0.5720059038659956  0.4528366238253401 1.0000   
         C         C         1.0       0.5300889512122245  0.5798074550236048  0.43237890109990296          1.0000   
         H         H         1.0       0.5428838697732469  0.5575186357212393  0.4662099396229179 1.0000   
         H         H         1.0       0.5550826097862409  0.5873851621759665  0.4668628101660599 1.0000   
         H         H         1.0       0.5226797717970477  0.5650818309882744  0.41928283057958676          1.0000   
         H         H         1.0       0.5363246786170208  0.5934112167354824  0.41646337039663767          1.0000   
         C         C         1.0       0.6756644641930056  0.6184653451399708  0.32568044128175344          1.0000   
         C         C         1.0       0.6771741933891131  0.633166993431855   0.3532518742356439 1.0000   
         H         H         1.0       0.6934066162526481  0.6142085915377594  0.31629221402139984          1.0000   
         H         H         1.0       0.6694022063398297  0.6290154850709797  0.30787077696332726          1.0000   
         H         H         1.0       0.6646175463558829  0.648014954665459   0.35617774759430826          1.0000   
         H         H         1.0       0.6694597408029983  0.6209363238700232  0.3698828810580789 1.0000   
         C         C         1.0       0.701762371251097   0.5954054918092428  0.5306641403960609 1.0000   
         C         C         1.0       0.6870019257835244  0.6151610146850048  0.5167769088098476 1.0000   
         H         H         1.0       0.7203938217364962  0.5971402877697657  0.5223484591139701 1.0000   
         H         H         1.0       0.7016810358642754  0.5985311706759358  0.5537118129895596 1.0000   
         H         H         1.0       0.6664168226715493  0.61113929341919    0.517287681182338  1.0000   
         H         H         1.0       0.6917419575174281  0.6120208833038446  0.49355087368949485          1.0000   
         C         C         1.0       0.6096156729048278  0.5587589610081863  0.17268861835276375          1.0000   
         C         C         1.0       0.6184208711723298  0.5409756605859264  0.19559082581679602          1.0000   
         H         H         1.0       0.6250555647408171  0.565425046059643   0.16099194665920258          1.0000   
         H         H         1.0       0.6006404073636676  0.5487957056985276  0.15376319346781994          1.0000   
         H         H         1.0       0.6035928708398678  0.5344253174411943  0.21103804401043402          1.0000   
         H         H         1.0       0.6301066077410066  0.5532011750336755  0.20889492480744212          1.0000   
         C         C         1.0       0.6919046825907709  0.5807989948527912  0.6076309344691655 1.0000   
         C         C         1.0       0.7804857265906099  0.5006046379022415  0.11352933689483852          1.0000   
         H         H         1.0       0.6977159673613281  0.5726793600704276  0.5874653356064623 1.0000   
         H         H         1.0       0.6922606614377509  0.6018001591539515  0.6049831090630114 1.0000   
         H         H         1.0       0.7747524547087424  0.49823787759250976           0.13562323285694317          1.0000   
         H         H         1.0       0.7962417850691791  0.48812334675372404           0.10839172307647306          1.0000   
         C         C         1.0       0.7460457599138619  0.5247367930997444  0.30934595237281404          1.0000   
         C         C         1.0       0.7328251932646572  0.542697209098335   0.2908981063045635 1.0000   
         H         H         1.0       0.7650985894946117  0.5246094734194644  0.30284648497510036          1.0000   
         H         H         1.0       0.7466114933552513  0.530869904246191   0.33150245974989984          1.0000   
         H         H         1.0       0.7150578807093708  0.5478070086092116  0.29864204523962856          1.0000   
         H         H         1.0       0.7291221304253392  0.5354156926400422  0.26973476003675845          1.0000   
         C         C         1.0       0.5433115506480456  0.5088867783523005  0.541670723655826  1.0000   
         C         C         1.0       0.5487950505146161  0.5225655448146284  0.5134419143107626 1.0000   
         H         H         1.0       0.5478234322280773  0.4897396874246634  0.5357756442073774 1.0000   
         H         H         1.0       0.5237409008425234  0.5082701412363337  0.5478237342785047 1.0000   
         H         H         1.0       0.5371490947424098  0.5170786027751059  0.49500414041463336          1.0000   
         H         H         1.0       0.5456278680552125  0.5421475160443101  0.5157154836349706 1.0000   
         C         C         1.0       0.5893718213594169  0.4639773150460434  0.2597105338373409 1.0000   
         C         C         1.0       0.5774217031310819  0.46845596384379234           0.2899451809074583 1.0000   
         H         H         1.0       0.5879834134029738  0.47936721977210406           0.24451997988508245          1.0000   
         H         H         1.0       0.577887592688324   0.4496272632179326  0.2479072896208354 1.0000   
         H         H         1.0       0.558607483415442   0.47341375966091304           0.28884379261203935          1.0000   
         H         H         1.0       0.578590026307634   0.45110123755212245           0.3009495391651934 1.0000   
         C         C         1.0       0.8503247138027629  0.05039460890777292           0.4084184637612469 1.0000   
         C         C         1.0       0.8291816592552773  0.06609949739497978           0.3965493269708495 1.0000   
         H         H         1.0       0.8564962501742646  0.03731898933175204           0.3903342926182108 1.0000   
         H         H         1.0       0.8448177779902695  0.03922064629600363           0.42770086063858126          1.0000   
         H         H         1.0       0.8205584868022063  0.074556975242283   0.41441456528561715          1.0000   
         H         H         1.0       0.8149066791051213  0.053701815685829324         0.3894587959056043 1.0000   
         C         C         1.0       0.9334314727994378  0.00034655326319277263       0.2057463903728697 1.0000   
         C         C         1.0       0.9500007170255376  0.9895968307094948  0.18173017870921798          1.0000   
         H         H         1.0       0.9158267233170626  0.004213137268546773         0.19663781658236582          1.0000   
         H         H         1.0       0.927027996344554   0.9877452887420451  0.22190189233223867          1.0000   
         H         H         1.0       0.9414524346593866  0.9737172904574448  0.17005427125562186          1.0000   
         H         H         1.0       0.9671599554703872  0.9834575153185509  0.19123206274425486          1.0000   
         C         C         1.0       0.0628034197980929  0.3006698410013675  0.5419073128196166 1.0000   
         C         C         1.0       0.07539753553248696           0.29780975398024573          0.5110845965261712 1.0000   
         H         H         1.0       0.07482823385923565           0.2920882232550212 0.5573645686034955 1.0000   
         H         H         1.0       0.046402899275757914          0.2879443751784301 0.5400221021664048 1.0000   
         H         H         1.0       0.06708198128304232           0.31310628014303543          0.49693854664495807          1.0000   
         H         H         1.0       0.09478310557866876           0.30268939597298555          0.5150207610435895 1.0000   
         C         C         1.0       0.9408495994685177  0.19474412432090338           0.4841760442618479 1.0000   
         C         C         1.0       0.96171286357572    0.2086278468008434  0.4993477443985246 1.0000   
         H         H         1.0       0.924013425630966   0.20164477576689732           0.49162481308347233          1.0000   
         H         H         1.0       0.9420333661423959  0.20107778143171362           0.46108231688187556          1.0000   
         H         H         1.0       0.9599377386713214  0.2060124132148121  0.5229837273148208 1.0000   
         H         H         1.0       0.96117613474351    0.22843820471934762           0.500461477672396  1.0000   
         C         C         1.0       0.9747003298287855  0.18082689621339287           0.3248476837837147 1.0000   
         C         C         1.0       0.9585244019281577  0.1921589210553455  0.34988737227838174          1.0000   
         H         H         1.0       0.9696234330439072  0.19084991373319157           0.3070728296416279 1.0000   
         H         H         1.0       0.9683074200509736  0.16188058048822915           0.31758643798044084          1.0000   
         H         H         1.0       0.956606156035235   0.2118169603089038  0.34770381474118833          1.0000   
         H         H         1.0       0.9654068206342808  0.19038593619692729           0.37082769442209546          1.0000   
         C         C         1.0       0.07147889517905748           0.36506909801979825          0.14948714877272454          1.0000   
         C         C         1.0       0.05207114288683323           0.34464460243472594          0.14490567251988787          1.0000   
         H         H         1.0       0.07880558531515591           0.37044835947812793          0.12889760764070549          1.0000   
         H         H         1.0       0.08615456389170784           0.3562380947037225 0.16084930046523052          1.0000   
         H         H         1.0       0.04520527686162401           0.34595997551372376          0.12200093688758848          1.0000   
         H         H         1.0       0.03620694046613582           0.3467603123085582 0.15724805341103668          1.0000   
         C         C         1.0       0.005566308162106681          0.18436855452620257          0.19627352657514105          1.0000   
         C         C         1.0       0.022211985514809962          0.1622316458174199 0.20111184827174772          1.0000   
         H         H         1.0       0.9920250009178341  0.18672979751106286           0.2135112343471674 1.0000   
         H         H         1.0       0.9948099116548814  0.1818567539075218  0.17725449933400392          1.0000   
         H         H         1.0       0.039338947014021075          0.1672722448707731 0.2129503690651123 1.0000   
         H         H         1.0       0.027263958508800146          0.15659031469385667          0.18019298961766234          1.0000   
         C         C         1.0       0.13914335655520146           0.14299455080814089          0.5145536533110053 1.0000   
         C         C         1.0       0.1559356363264467  0.16248230300458558           0.5274217869037094 1.0000   
         H         H         1.0       0.13309235495048624           0.13061384886651498          0.5302500958325596 1.0000   
         H         H         1.0       0.15038420489458287           0.13056791636595227          0.501313720812959  1.0000   
         H         H         1.0       0.1715123118870464  0.15025511991791698           0.5344752175442972 1.0000   
         H         H         1.0       0.16505331735849338           0.17350050226040076          0.5117599746958452 1.0000   
         C         C         1.0       0.16332835273528248           0.23964732506844952          0.25615865785705594          1.0000   
         C         C         1.0       0.15150572309349902           0.24655694623275462          0.28503751653963916          1.0000   
         H         H         1.0       0.1697056207180151  0.2199577087002243  0.2582109523884126 1.0000   
         H         H         1.0       0.17968400248743413           0.25127492495150416          0.24910700495026172          1.0000   
         H         H         1.0       0.16613015343757653           0.2515428128970337 0.29913243252733296          1.0000   
         H         H         1.0       0.14234328343893415           0.26483073683301744          0.2840797831155024 1.0000   
         C         C         1.0       0.049393950497846895          0.11956425007087881          0.594190789613416  1.0000   
         C         C         1.0       0.07050402070415718           0.1160070825420428 0.09495844731444157          1.0000   
         H         H         1.0       0.05382986402924583           0.1026990664289644 0.6060054510937728 1.0000   
         H         H         1.0       0.030952103881251025          0.1230176039191773 0.6022331836709633 1.0000   
         H         H         1.0       0.08171996765695222           0.11363540684447296          0.1114338962468044 1.0000   
         H         H         1.0       0.06831440261986854           0.1359129411418985 0.09587745506386468          1.0000   
         C         C         1.0       0.07402276272083765           0.8458304725301049 0.5436378855585895 1.0000   
         C         C         1.0       0.04758630302357614           0.834487094038584  0.5428870514060175 1.0000   
         H         H         1.0       0.08786219823147831           0.8327683482825001 0.5448855800352645 1.0000   
         H         H         1.0       0.07576277148160711           0.8557228322969365 0.564462276003212  1.0000   
         H         H         1.0       0.03432088708539349           0.8454688262334784 0.5331781945842525 1.0000   
         H         H         1.0       0.04123817259218199           0.8326865387333797 0.5657954644487437 1.0000   
         C         C         1.0       0.05633440851286786           0.09920673559609283          0.4405918279310243 1.0000   
         C         C         1.0       0.03540013422371446           0.09127260187581498          0.42107613213862505          1.0000   
         H         H         1.0       0.05060485379279189           0.11472269114194211          0.45488728216890867          1.0000   
         H         H         1.0       0.06902835842313682           0.1088451514235087 0.42724464823584907          1.0000   
         H         H         1.0       0.034389296350028964          0.10277590666799452          0.4024296734729584 1.0000   
         H         H         1.0       0.03729404494244504           0.07303009809206396          0.4138304170201728 1.0000   
         C         C         1.0       0.039719770836370794          0.8565007890578187 0.1358042430061399 1.0000   
         C         C         1.0       0.017745827173486495          0.8437892855829385 0.14845308287480394          1.0000   
         H         H         1.0       0.05580103497419775           0.844323839995563  0.13883931120207357          1.0000   
         H         H         1.0       0.03685929886486817           0.8569773543961061 0.11183219432137234          1.0000   
         H         H         1.0       0.0053528350089193655         0.8395909480262087 0.1318321346240312 1.0000   
         H         H         1.0       0.005841974264319427          0.8558008750663153 0.1609661067347838 1.0000   
         C         C         1.0       0.06513952714467597           0.061366457467708635         0.35591760697181596          1.0000   
         C         C         1.0       0.05950690933886715           0.0833738950366824 0.3370575936471737 1.0000   
         H         H         1.0       0.049383885346394374          0.05598641148458561          0.3702405551525866 1.0000   
         H         H         1.0       0.0788036691156857  0.06745365441405071           0.3717717816170468 1.0000   
         H         H         1.0       0.07451309725735289           0.08667921812227679          0.3238574790302955 1.0000   
         H         H         1.0       0.06015159393779923           0.09983802391044917          0.35010578782758217          1.0000   
         C         C         1.0       0.03036992888778456           0.8790629785796908 0.36210374430985415          1.0000   
         C         C         1.0       0.040213860055661854          0.8830086774813155 0.3315602897933601 1.0000   
         H         H         1.0       0.026096113252742192          0.859711893748092  0.36348893892726053          1.0000   
         H         H         1.0       0.012015893558396717          0.8886012971697028 0.3640701312234198 1.0000   
         H         H         1.0       0.04999571624495225           0.8684147434747611 0.3229177819838758 1.0000   
         H         H         1.0       0.02418490017240349           0.8825731429941607 0.3162217229455799 1.0000   
         C         C         1.0       0.005497287787785465          0.9915848166290475 0.10571066218649025          1.0000   
         C         C         1.0       0.997750367610996   0.973778430276289   0.08283757322768744          1.0000   
         H         H         1.0       0.9896591429061723  0.9996316647532014  0.11618363910420369          1.0000   
         H         H         1.0       0.013233047435836864          0.008246438180714133         0.09567467744746304          1.0000   
         H         H         1.0       0.9821860218590809  0.9800003594352893  0.07337459625875087          1.0000   
         H         H         1.0       0.9922230267009932  0.9560508379065854  0.09296816044721747          1.0000   
         C         C         1.0       0.1537159965831845  0.09234716257887012           0.28667146790986486          1.0000   
         C         C         1.0       0.12653772402837457           0.09335704782833469          0.29650706226884754          1.0000   
         H         H         1.0       0.15825401070369807           0.10930865237682452          0.2765138183136446 1.0000   
         H         H         1.0       0.15259758663018108           0.08081157151871703          0.2663901276557286 1.0000   
         H         H         1.0       0.12293702437864949           0.08070360206789591          0.31426722510142   1.0000   
         H         H         1.0       0.11553770636626638           0.08779863586016896          0.2781025526163433 1.0000   
         C         C         1.0       0.1761279485218715  0.9830527482519874  0.4379727180651358 1.0000   
         C         C         1.0       0.18327974653989576           0.9601117894756386 0.4225748404987998 1.0000   
         H         H         1.0       0.17989605914990087           0.9816303219778616 0.460900710638089  1.0000   
         H         H         1.0       0.15621075540661936           0.9857024387322875 0.43452471616381866          1.0000   
         H         H         1.0       0.18795040255745074           0.9651117054350182 0.399590077515787  1.0000   
         H         H         1.0       0.20180984878905575           0.9558181196029717 0.4293757154561349 1.0000   
         C         C         1.0       0.19971067754529526           0.9866936059905539 0.31519907530695895          1.0000   
         C         C         1.0       0.21624428817730726           0.9686931232786223 0.29945917322674676          1.0000   
         H         H         1.0       0.2026222977288917  0.004424910098309143         0.3042273759684253 1.0000   
         H         H         1.0       0.2044132488687821  0.9931397260266105  0.3367407290966727 1.0000   
         H         H         1.0       0.2125182122062646  0.9675129870130768  0.2766877317741274 1.0000   
         H         H         1.0       0.21505997999034934           0.9504504238238788 0.30456356202827123          1.0000   
         C         C         1.0       0.20672751190521504           0.1695120960406233 0.2253741901994549 1.0000   
         C         C         1.0       0.18244015135524883           0.17337223950792838          0.2149356832566071 1.0000   
         H         H         1.0       0.20684952297778997           0.17381411891235365          0.24926144888629026          1.0000   
         H         H         1.0       0.21769335870706466           0.18472249351827907          0.21825513982494982          1.0000   
         H         H         1.0       0.17716606599957732           0.1919688203716907 0.22233240223041564          1.0000   
         H         H         1.0       0.16978249625557207           0.16122613562436167          0.22610809365479656          1.0000   
         C         C         1.0       0.18851893325626046           0.9847471350133281 0.20456093300989128          1.0000   
         C         C         1.0       0.17946854775891782           0.9816702832822414 0.1744444427931286 1.0000   
         H         H         1.0       0.1976673220804071  0.967466456460285   0.21025225101884737          1.0000   
         H         H         1.0       0.17271014944089094           0.9842144580721554 0.22015479001579719          1.0000   
         H         H         1.0       0.19055832659806776           0.9688591250292464 0.16282052215296358          1.0000   
         H         H         1.0       0.1811890917876078  0.9981945112656204  0.16029240459241784          1.0000   
         C         C         1.0       0.20826887663026541           0.16522609903812174          0.4784643986753417 1.0000   
         C         C         1.0       0.22357450680943075           0.15852639223500695          0.4516926137335427 1.0000   
         H         H         1.0       0.18920049144262072           0.15993663515297005          0.4760065460188336 1.0000   
         H         H         1.0       0.20755211547547311           0.18532312829403177          0.4797224125289698 1.0000   
         H         H         1.0       0.24276140397114612           0.16421378243512658          0.4544547610547607 1.0000   
         H         H         1.0       0.21946846066504058           0.1702137008636061 0.43373594868213483          1.0000   
         C         C         1.0       0.3574281577888689  0.07429410188791492           0.24505491510853428          1.0000   
         C         C         1.0       0.3411832339728233  0.09645346265410847           0.23922750701575302          1.0000   
         H         H         1.0       0.37445401196694883           0.08153188833879399          0.25211067163442613          1.0000   
         H         H         1.0       0.3613167511492723  0.06380131987710116           0.22545260026778804          1.0000   
         H         H         1.0       0.35198968828068405           0.10605107950111181          0.22316747348585414          1.0000   
         H         H         1.0       0.3427820478164199  0.11146766811454091           0.25500214311415176          1.0000   
         C         C         1.0       0.16759904520857932           0.9380378091205958 0.08089428811195787          1.0000   
         C         C         1.0       0.18069262938158462           0.9556608921207057 0.10106908737829588          1.0000   
         H         H         1.0       0.15933544124401852           0.9238294543730571 0.09340169237185503          1.0000   
         H         H         1.0       0.1812369733627627  0.9290209867033263  0.06692576730848976          1.0000   
         H         H         1.0       0.1676421430443672  0.028532347755377607         0.6273709378600838 1.0000   
         H         H         1.0       0.16689138554754798           0.9588847640248436 0.11837697808985326          1.0000   
         C         C         1.0       0.7827798176932936  0.12632996215978065           0.23710544221183083          1.0000   
         C         C         1.0       0.8005635557687091  0.14827884933277732           0.2411539877566599 1.0000   
         H         H         1.0       0.7702706324834049  0.129874678131295   0.2203603945152323 1.0000   
         H         H         1.0       0.7914868156160286  0.10992994593940879           0.2293261134344001 1.0000   
         H         H         1.0       0.7908298658463706  0.16430976380919748           0.24926869197416202          1.0000   
         H         H         1.0       0.8077817561471881  0.15400027740696456           0.22003128112925263          1.0000   
         C         C         1.0       0.9094383057915544  0.12330501867456221           0.197544912540259  1.0000   
         C         C         1.0       0.8949665381196642  0.15368010732934878           0.6683763029163561 1.0000   
         H         H         1.0       0.9271492262815666  0.14283706647321978           0.6874385891398331 1.0000   
         H         H         1.0       0.897593417586132   0.10889702419145851           0.20377027556177826          1.0000   
         H         H         1.0       0.901814650872594   0.16957786148257642           0.6578289179576963 1.0000   
         H         H         1.0       0.8884117049367937  0.1590546257195471  0.689940868111214  1.0000   
         C         C         1.0       0.8535028694800055  0.06579601717045702           0.5095430654666618 1.0000   
         C         C         1.0       0.8326239752375203  0.051453286746372395         0.4928938542113637 1.0000   
         H         H         1.0       0.8615326573987223  0.08062606865218092           0.49562300719919694          1.0000   
         H         H         1.0       0.8704298876725524  0.05337977467741051           0.5133209500216979 1.0000   
         H         H         1.0       0.8261522249983734  0.03663286240660657           0.5066863890223667 1.0000   
         H         H         1.0       0.8397154594079819  0.04229000736768306           0.4734819171047745 1.0000   
         C         C         1.0       0.736898797772381   0.00489969237220822           0.22975171434165798          1.0000   
         C         C         1.0       0.7170984284689843  0.0010766295784152555        0.2532807196193045 1.0000   
         H         H         1.0       0.736552691247149   0.9883831406638348  0.21716236784269802          1.0000   
         H         H         1.0       0.7537382960649187  0.005818014890321077         0.24185024721612916          1.0000   
         H         H         1.0       0.6980584501110927  0.9964152855941926  0.24673701250435695          1.0000   
         H         H         1.0       0.7191374441994915  0.9837478858819372  0.26347524765043284          1.0000   
         C         C         1.0       0.6587491802663749  0.4097010151332933  0.5109498734501963 1.0000   
         C         C         1.0       0.6723927093341223  0.3966792757188157  0.5352876291215808 1.0000   
         H         H         1.0       0.6640661532619816  0.40081226246817625           0.4888468161078311 1.0000   
         H         H         1.0       0.639922528514747   0.40535150202573106           0.511975647422413  1.0000   
         H         H         1.0       0.6654364488198389  0.40439518007317277           0.5568036946594399 1.0000   
         H         H         1.0       0.6912754350287049  0.40337387599743774           0.5348031979599067 1.0000   
         C         C         1.0       0.707335688301279   0.16535594766189035           0.5723638182527064 1.0000   
         C         C         1.0       0.7294499127566421  0.18146535335419695           0.5763228979886905 1.0000   
         H         H         1.0       0.7052719760945277  0.1500555381035077  0.5863971139023005 1.0000   
         H         H         1.0       0.709037821279703   0.15736072249736807           0.5500375010993612 1.0000   
         H         H         1.0       0.7261518735852677  0.19485988496677098           0.5948030077115911 1.0000   
         H         H         1.0       0.7471563335959555  0.20746372644942124           0.060226110664796995         1.0000   
         C         C         1.0       0.7259667513678113  0.22475405893278422           0.4591667923654563 1.0000   
         C         C         1.0       0.7197138881012015  0.2015567132468436  0.4758334304052126 1.0000   
         H         H         1.0       0.7245865348106868  0.22320895797744386           0.4354243269564081 1.0000   
         H         H         1.0       0.7455271654152442  0.22927472146529612           0.4634838020955363 1.0000   
         H         H         1.0       0.7228190711107284  0.20375553271793936           0.4984139766918779 1.0000   
         H         H         1.0       0.6999415909259014  0.19950644919030722           0.4741179069563686 1.0000   
         C         C         1.0       0.7155053613052774  0.35140324089404296           0.33103044104957347          1.0000   
         C         C         1.0       0.7224085975851905  0.3289767498737589  0.31300481402385866          1.0000   
         H         H         1.0       0.7297935824751599  0.35612613099684154           0.34702340096749673          1.0000   
         H         H         1.0       0.7003328723703126  0.34619115184997457           0.34595707080249316          1.0000   
         H         H         1.0       0.7302212810094215  0.3153077958861068  0.32788768558428466          1.0000   
         H         H         1.0       0.7377587388057165  0.33353053527373683           0.2978734761815703 1.0000   
         C         C         1.0       0.6509696142974718  0.15444250364266746           0.399688816683151  1.0000   
         C         C         1.0       0.6491754172296648  0.13738033329685298           0.3737293791070172 1.0000   
         H         H         1.0       0.6447983964014267  0.14503372716930604           0.41894939896864425          1.0000   
         H         H         1.0       0.6704154084917086  0.1608164972839108  0.40426893374952877          1.0000   
         H         H         1.0       0.645079999943691   0.14861122875118973           0.35541929473954337          1.0000   
         H         H         1.0       0.6332671564698271  0.1250168209672394  0.37719268726970795          1.0000   
         C         C         1.0       0.569696234467279   0.3188289348990303  0.42387923473222494          1.0000   
         C         C         1.0       0.5882523858823979  0.33884973554954934           0.43343359374774965          1.0000   
         H         H         1.0       0.5565249789023936  0.32669763690111214           0.4098234047693026 1.0000   
         H         H         1.0       0.5583181987344444  0.3146865138257701  0.44236626549279834          1.0000   
         H         H         1.0       0.5963217637381221  0.345025757862033   0.4131330169293731 1.0000   
         H         H         1.0       0.5784786165448031  0.3530089765405786  0.44348220791717335          1.0000   
         C         C         1.0       0.5786764898067018  0.31366461793807865           0.17560749705370945          1.0000   
         C         C         1.0       0.5724881575801739  0.2976735669780418  0.14948684324639588          1.0000   
         H         H         1.0       0.5626691666424385  0.32478795190610804           0.18270609152329176          1.0000   
         H         H         1.0       0.5899326195866423  0.32864045741264086           0.16627070182676265          1.0000   
         H         H         1.0       0.5604965386660262  0.2807680332618809  0.1531991754937014 1.0000   
         H         H         1.0       0.5599791555956298  0.30580063427040877           0.136040604354875  1.0000   
         C         C         1.0       0.6764840668682311  0.17262428582570874           0.19899722584816437          1.0000   
         C         C         1.0       0.694763400476322   0.19287123019518787           0.2033744287340471 1.0000   
         H         H         1.0       0.661858441357276   0.1793032121559274  0.18591998313686786          1.0000   
         H         H         1.0       0.6682213007961596  0.16974262852808578           0.2201470569829532 1.0000   
         H         H         1.0       0.7036706866001627  0.19830969363586654           0.18404572904493727          1.0000   
         H         H         1.0       0.7088696533324329  0.1838147422399772  0.21679450257780325          1.0000   
         C         C         1.0       0.5442366670173558  0.8106984147949541  0.3834496811262057 1.0000   
         C         C         1.0       0.5698724055007324  0.7999514344240406  0.38647747188558257          1.0000   
         H         H         1.0       0.5314299029936386  0.7981302065600177  0.3932301524159077 1.0000   
         H         H         1.0       0.5371825600606396  0.8126682183374673  0.3614890225454256 1.0000   
         H         H         1.0       0.5714209736742217  0.7838342564719795  0.3728517154169393 1.0000   
         H         H         1.0       0.583509422547228   0.8114805650647847  0.3765872971074754 1.0000   
         C         C         1.0       0.6529777137838119  0.04304677365076204           0.49272976282891545          1.0000   
         C         C         1.0       0.6525231543709176  0.07098323417940855           0.49112007460390356          1.0000   
         H         H         1.0       0.6721771125366223  0.03760473912928086           0.49267601474296024          1.0000   
         H         H         1.0       0.6473001398619926  0.03717676150364424           0.5139882722118171 1.0000   
         H         H         1.0       0.6487460233085066  0.08037787095099835           0.5102995208399328 1.0000   
         H         H         1.0       0.6364453333068385  0.07691160692265409           0.47727790672922127          1.0000   
         C         C         1.0       0.5454408696193008  0.9301982879836849  0.31150983822433476          1.0000   
         C         C         1.0       0.5586589994488368  0.9132449565389972  0.33385373025429577          1.0000   
         H         H         1.0       0.5313431946311812  0.9185741303454562  0.30046021695352887          1.0000   
         H         H         1.0       0.533845361275787   0.944773798630909   0.321620535828751  1.0000   
         H         H         1.0       0.5456190201580134  0.9098449086683581  0.35069430506517674          1.0000   
         H         H         1.0       0.5732848489075559  0.9260795604743705  0.3424870045009528 1.0000   
         C         C         1.0       0.6344654977604157  0.051245372285996016         0.05470213670041634          1.0000   
         C         C         1.0       0.6392204959629744  0.07359253482341743           0.07396181369379651          1.0000   
         H         H         1.0       0.6510933187430469  0.04648012063882234           0.043191225763351326         1.0000   
         H         H         1.0       0.6211939468296092  0.05673909985599934           0.036899594386887946         1.0000   
         H         H         1.0       0.6238692009115012  0.0795713709023469  0.08683516067283381          1.0000   
         H         H         1.0       0.6429011989988438  0.08759713675353664           0.05910247404525926          1.0000   
         C         C         1.0       0.599967683471247   0.8687358254569224  0.547100052142828  1.0000   
         C         C         1.0       0.6203564178358116  0.8654951015936629  0.06550425731118237          1.0000   
         H         H         1.0       0.5897851120643096  0.8596687641057401  0.56525563146426   1.0000   
         H         H         1.0       0.6098955433581792  0.8509626542968554  0.5436061109218773 1.0000   
         H         H         1.0       0.6237663746404433  0.8549602180578737  0.08493601485970924          1.0000   
         H         H         1.0       0.6373959256246106  0.8681095829489944  0.05265320687697783          1.0000   
         C         C         1.0       0.6595592385066533  0.9287792498435528  0.32062066525071864          1.0000   
         C         C         1.0       0.6762830699266343  0.9447908599891687  0.3021845965846417 1.0000   
         H         H         1.0       0.6477512212711899  0.9172945307622095  0.3066723419108478 1.0000   
         H         H         1.0       0.6712108173095498  0.9154366082121751  0.33020371804316134          1.0000   
         H         H         1.0       0.6910506857369377  0.93399239161949    0.2928243132045992 1.0000   
         H         H         1.0       0.6855629424545623  0.9589344133163253  0.31439346235592464          1.0000   
         C         C         1.0       0.33069114155906676           0.06425138064076563          0.9932816256570227 1.0000   
         C         C         1.0       0.31465104863348714           0.04154710262892758          0.9998850474989165 1.0000   
         H         H         1.0       0.31975533327861805           0.07952200278957311          0.9992819108187083 1.0000   
         H         H         1.0       0.33311901375977204           0.06307639030975509          0.9699181674953367 1.0000   
         H         H         1.0       0.3279362360764578  0.027015266036697128         0.008636312159983284         1.0000   
         H         H         1.0       0.30786745194814974           0.03406538789338476          0.9788251512294507 1.0000   
         C         C         1.0       0.5402970530561887  0.16178707788608124           0.4770187529011772 1.0000   
         C         C         1.0       0.5402784086259225  0.15891509721402347           0.5095256843982008 1.0000   
         H         H         1.0       0.5587713286677793  0.15842340884532224           0.46828126001328346          1.0000   
         H         H         1.0       0.5370893289235349  0.18136853412726636           0.47459907047357835          1.0000   
         H         H         1.0       0.5456058739963192  0.14089240734108266           0.5133939255736398 1.0000   
         H         H         1.0       0.5215562808727524  0.15982603623263708           0.5187682508165659 1.0000   
         C         C         1.0       0.4883517183985257  0.9948328251315449  0.42321332879841744          1.0000   
         C         C         1.0       0.4773609808304509  0.978362277630678   0.4462638166627472 1.0000   
         H         H         1.0       0.4846069047913991  0.9851922517717342  0.40235334249020455          1.0000   
         H         H         1.0       0.5076243993278194  0.9966695102725874  0.43041411021993015          1.0000   
         H         H         1.0       0.4758152745739713  0.9878547938756603  0.4674823167681028 1.0000   
         H         H         1.0       0.4589588702074242  0.9733892730309074  0.4412537401198047 1.0000   
         C         C         1.0       0.5010577802319663  0.9935428917662873  0.05588686129534425          1.0000   
         C         C         1.0       0.47699506655844925           0.9894447711959147 0.06929645441906329          1.0000   
         H         H         1.0       0.5047831600002705  0.01284481892432332           0.05513917753699582          1.0000   
         H         H         1.0       0.5002788059628687  0.9907856804291403  0.03332016048954367          1.0000   
         H         H         1.0       0.4794823886817328  0.9846265233693606  0.09128300699573441          1.0000   
         H         H         1.0       0.4673124341696644  0.9744676952176593  0.05998922076559565          1.0000   
         C         C         1.0       0.383894656481531   0.9627157485408723  0.3803092855778487 1.0000   
         C         C         1.0       0.4045897918815222  0.9562387990561808  0.36012447745074433          1.0000   
         H         H         1.0       0.3894674860822345  0.9709026246074963  0.4009210935346827 1.0000   
         H         H         1.0       0.3766735279074691  0.9444970961059843  0.3877100905057415 1.0000   
         H         H         1.0       0.41747314963875126           0.9451337144166634 0.37235448833592605          1.0000   
         H         H         1.0       0.40004738576144977           0.9413995633290891 0.3453398090907749 1.0000   
         C         C         1.0       0.49339896548704903           0.16120291752090615          0.31713060240229407          1.0000   
         C         C         1.0       0.5007460628076413  0.18599707843497573           0.30509225993710015          1.0000   
         H         H         1.0       0.47790410580211773           0.16235344461752468          0.33231104735939293          1.0000   
         H         H         1.0       0.5065442779367741  0.1549844628120241  0.33148650028609117          1.0000   
         H         H         1.0       0.4864767444892399  0.19884952283309162           0.303716545638277  1.0000   
         H         H         1.0       0.5065924037615136  0.1841011636854629  0.28187078246213165          1.0000   
         C         C         1.0       0.5571967349384407  0.06758693950071426           0.15696250556920308          1.0000   
         C         C         1.0       0.5777123478964518  0.06845231975826582           0.17649254195304528          1.0000   
         H         H         1.0       0.5540315220154511  0.04925702724270353           0.1472226199053956 1.0000   
         H         H         1.0       0.5634786882699241  0.07852311666624479           0.13883228703474063          1.0000   
         H         H         1.0       0.5771153350033389  0.08322057169445829           0.19243988776580645          1.0000   
         H         H         1.0       0.5960220449134805  0.07512569795072466           0.1672599226350771 1.0000   
         C         C         1.0       0.3723256096914068  0.11350577132520359           0.3569468006577455 1.0000   
         C         C         1.0       0.3837397412279676  0.13256265314420795           0.3781589538421147 1.0000   
         H         H         1.0       0.3559458720047304  0.10587383904869438           0.3680307226985487 1.0000   
         H         H         1.0       0.3638376988044895  0.12400786531489666           0.34124995353785   1.0000   
         H         H         1.0       0.37082598014241175           0.14320369862253948          0.3915162987586802 1.0000   
         H         H         1.0       0.39208218911816084           0.14720906350211083          0.3642383819638521 1.0000   
         C         C         1.0       0.4051690975458347  0.15416933571742467           0.15080340392873579          1.0000   
         C         C         1.0       0.4183109984643975  0.16116734631255525           0.1225301706066705 1.0000   
         H         H         1.0       0.38655985132758774           0.14403582541448293          0.15107207856670607          1.0000   
         H         H         1.0       0.4027883039545031  0.17213756130685506           0.16150153314997034          1.0000   
         H         H         1.0       0.4343823887126355  0.17094280139771761           0.12760748250571421          1.0000   
         H         H         1.0       0.40728159512983864           0.17537382607256655          0.11084270028081335          1.0000   
         C         C         1.0       0.5594389878093717  0.07899731794797793           0.37414472425634693          1.0000   
         C         C         1.0       0.5482543965388794  0.07818197519550796           0.34396660133393986          1.0000   
         H         H         1.0       0.544472535607602   0.08497261906274489           0.3895967850107834 1.0000   
         H         H         1.0       0.5737377694945696  0.09068522174253535           0.3792313791699357 1.0000   
         H         H         1.0       0.5477121916340881  0.09688634383832473           0.33640516271126647          1.0000   
         H         H         1.0       0.5581533971689937  0.06821803124439407           0.32682181863160176          1.0000   
         C         C         1.0       0.5476341888769282  0.2089859862722935  0.7704618068627977 1.0000   
         C         C         1.0       0.5290630829200327  0.20705794783752454           0.7517350282978115 1.0000   
         C         C         1.0       0.5279503914340553  0.18702024191275426           0.7350133276393666 1.0000   
         C         C         1.0       0.544082605674131   0.1685971842175586  0.7336654338668075 1.0000   
         C         C         1.0       0.5634939081413797  0.17208797002509654           0.7526680409157216 1.0000   
         C         C         1.0       0.5653801559974396  0.19144958408414056           0.7703018655853588 1.0000   
         H         H         1.0       0.5150246491084103  0.2219991808824085  0.7494902926363033 1.0000   
         H         H         1.0       0.5112611166360195  0.18497235767515896           0.7244260974280349 1.0000   
         H         H         1.0       0.5771239479310319  0.15725685019417332           0.751513439258233  1.0000   
         H         H         1.0       0.5808971884965762  0.19309696632928453           0.7829140553206226 1.0000   
         C         C         1.0       0.5884478109532728  0.14550373582048082           0.6973373208843422 1.0000   
         C         C         1.0       0.5662843559605882  0.1344703067318865  0.6978650668129871 1.0000   
         C         C         1.0       0.5652475094425478  0.11007489373397417           0.6901520283982925 1.0000   
         C         C         1.0       0.5857431588600991  0.09649461389546743           0.6879786546992417 1.0000   
         C         C         1.0       0.6076451722139755  0.1078142332690708  0.6872307665495265 1.0000   
         C         C         1.0       0.6088427661839365  0.13226550906689605           0.6909439326044261 1.0000   
         C         C         1.0       0.5427029746854095  0.14714353739018962           0.7111866010367149 1.0000   
         C         C         1.0       0.5306859808125581  0.15604567300129482           0.6825882521344754 1.0000   
         C         C         1.0       0.5093389150860781  0.14603725069542445           0.6714135614088161 1.0000   
         C         C         1.0       0.4990067146924865  0.15837858966954108           0.6491091588717544 1.0000   
         C         C         1.0       0.5101163310624391  0.17681849760390522           0.6357817640194489 1.0000   
         C         C         1.0       0.5323800360903947  0.1840531197046485  0.6448026199798761 1.0000   
         C         C         1.0       0.5422695336410899  0.17396742094162054           0.6691839289849368 1.0000   
         C         C         1.0       0.5383284477470451  0.11477509942136324           0.7494267241347823 1.0000   
         C         C         1.0       0.5260876505168419  0.10313877552614976           0.7689656162421802 1.0000   
         C         C         1.0       0.5019382362215543  0.10545264213900919           0.773941411060506  1.0000   
         C         C         1.0       0.4898765538692815  0.11932426991962009           0.755487797344092  1.0000   
         C         C         1.0       0.5015077806703749  0.13030756504563515           0.732883271472853  1.0000   
         C         C         1.0       0.5261639154329324  0.12970357989795825           0.7310105281053615 1.0000   
         C         C         1.0       0.4896668088405087  0.1015540135258628  0.8036737613307512 1.0000   
         C         C         1.0       0.5334690341421326  0.04580942279032074           0.839752572940132  1.0000   
         C         C         1.0       0.5232578748784799  0.06248017732932576           0.8579049578552069 1.0000   
         C         C         1.0       0.509526533796915   0.08036799294963126           0.8471434521161383 1.0000   
         C         C         1.0       0.5035450654909294  0.08088766782349444           0.8184114517739441 1.0000   
         C         C         1.0       0.5091431753611938  0.05956201251386428           0.8037704301172112 1.0000   
         C         C         1.0       0.5255263040431157  0.04325987283649524           0.812567752694703  1.0000   
         C         C         1.0       0.4623816676825295  0.09281642884717756           0.8039046028547597 1.0000   
         C         C         1.0       0.45108039633060265           0.08195712363837071          0.7808089174812299 1.0000   
         C         C         1.0       0.4268396151030502  0.07663772551366188           0.7815809511060323 1.0000   
         C         C         1.0       0.4152941392846711  0.07915430959832759           0.8081680916001934 1.0000   
         C         C         1.0       0.4263635219340931  0.08860520247558035           0.8304761541582717 1.0000   
         C         C         1.0       0.44947568603839544           0.09491669296828942          0.8286728545446858 1.0000   
         C         C         1.0       0.4756173806872091  0.14613344547581053           0.8142242815725791 1.0000   
         C         C         1.0       0.4771716870096435  0.16805598212273995           0.8268976065011829 1.0000   
         C         C         1.0       0.4990140988365272  0.17487743221755825           0.8396789515796298 1.0000   
         C         C         1.0       0.5177953837454451  0.15957222157065423           0.8379780725299781 1.0000   
         C         C         1.0       0.515076602235678   0.1363443069612109  0.8282276390303457 1.0000   
         C         C         1.0       0.49378382913959795           0.12974674927275823          0.8155634318435128 1.0000   
         H         H         1.0       0.5894318322101231  0.16391355867470753           0.7050152275922189 1.0000   
         H         H         1.0       0.5489182029909109  0.10082924901589263           0.6926192386347388 1.0000   
         H         H         1.0       0.5819967813270059  0.07774131572114684           0.6823522824081334 1.0000   
         H         H         1.0       0.625863041178898   0.14215499170831714           0.6902117172851067 1.0000   
         H         H         1.0       0.5007860364295876  0.12983044121970522           0.6785394829806606 1.0000   
         H         H         1.0       0.48243716867475817           0.1532010333636364 0.638847609200274  1.0000   
         H         H         1.0       0.5441601513116902  0.19741779023706607           0.6335819456037952 1.0000   
         H         H         1.0       0.5591378334199504  0.18063866408955798           0.6765706178469636 1.0000   
         H         H         1.0       0.5579355972050585  0.11271014259141006           0.7496496508518576 1.0000   
         H         H         1.0       0.5378762269507201  0.09323311177682636           0.7829880089274416 1.0000   
         H         H         1.0       0.4710609703905203  0.12448301744764118           0.7602099115496347 1.0000   
         H         H         1.0       0.48947421560423626           0.1420743669679929 0.7207208071637795 1.0000   
         H         H         1.0       0.5277512603477099  0.0631492675678087  0.8802839304474868 1.0000   
         H         H         1.0       0.5038591962572757  0.09475561733519888           0.8604559374706113 1.0000   
         H         H         1.0       0.5023134470354444  0.05389357910306147           0.7831243311177586 1.0000   
         H         H         1.0       0.531398693125445   0.028456530235277278         0.7987236050246891 1.0000   
         H         H         1.0       0.45784254023932114           0.07891037446902094          0.7603911214034067 1.0000   
         H         H         1.0       0.4182597558382551  0.06958039815507755           0.7627203877831061 1.0000   
         H         H         1.0       0.41704537219429805           0.09105769996066226          0.850967961303711  1.0000   
         H         H         1.0       0.45774051493467266           0.1041473138194009 0.8475201394133138 1.0000   
         H         H         1.0       0.45709619623417197           0.14234409640853313          0.8081253011329228 1.0000   
         H         H         1.0       0.462080772166481   0.17915432771072812           0.8270712859275569 1.0000   
         H         H         1.0       0.5357560970401617  0.16216729967595203           0.8490156426244472 1.0000   
         H         H         1.0       0.5301549857037003  0.12476114785050917           0.8264986719297134 1.0000   
         C         C         1.0       0.5435332048328083  0.17065738416297935           0.03466706485200799          1.0000   
         C         C         1.0       0.5221962593584838  0.17792434444397628           0.025013561682415197         1.0000   
         C         C         1.0       0.5108772165159198  0.16232844114002545           0.006482115049519344         1.0000   
         C         C         1.0       0.5184947299575737  0.1393265158453157  0.00014936345766569659       1.0000   
         C         C         1.0       0.5387199482224827  0.13093209489349297           0.015182086552038898         1.0000   
         C         C         1.0       0.551049678458833   0.14656851170200122           0.0323269845668126 1.0000   
         H         H         1.0       0.5168266403317366  0.19634244612044813           0.02724383329534552          1.0000   
         H         H         1.0       0.4958006564425362  0.1692476440430371  0.9944665586560991 1.0000   
         H         H         1.0       0.5429010440299737  0.11321697105105476           0.015624070117792543         1.0000   
         H         H         1.0       0.5674660164030878  0.14088362966884477           0.04308357689049913          1.0000   
         C         C         1.0       0.5435011932910883  0.09784178997179271           0.9616309291126308 1.0000   
         C         C         1.0       0.5178738194551734  0.10097992119201793           0.9627221731245759 1.0000   
         C         C         1.0       0.5038051848252271  0.08046750948912118           0.953614192372929  1.0000   
         C         C         1.0       0.5141667092659284  0.057987275461804044         0.9501884880977977 1.0000   
         C         C         1.0       0.539419676728124   0.05589460842848215           0.9521555733902929 1.0000   
         C         C         1.0       0.553549808507214   0.0751076293435875  0.9557135936757869 1.0000   
         C         C         1.0       0.5060211251883407  0.1231974910735974  0.9754381537632418 1.0000   
         C         C         1.0       0.5027189164502198  0.14025309923319118           0.9486772217355276 1.0000   
         C         C         1.0       0.4827252947384487  0.1382191663579949  0.9304486178106381 1.0000   
         C         C         1.0       0.4781456782322523  0.1549234873904656  0.9094325169063039 1.0000   
         C         C         1.0       0.4939557489316632  0.17372603251391436           0.9066888669590628 1.0000   
         C         C         1.0       0.514997384774641   0.17554507203805497           0.9232895595133975 1.0000   
         C         C         1.0       0.5197078790472525  0.15837869875585583           0.9419779287438869 1.0000   
         C         C         1.0       0.4883854378652938  0.09647036527415032           0.016113873258772893         1.0000   
         C         C         1.0       0.4701102713638443  0.08550554576197467           0.028964429819417603         1.0000   
         C         C         1.0       0.4463672042498392  0.09113012439260726           0.024810789177228898         1.0000   
         C         C         1.0       0.442687434881349   0.11154205342734906           0.008252777601188699         1.0000   
         C         C         1.0       0.4604009590640023  0.12200362168396028           0.9922851752978161 1.0000   
         C         C         1.0       0.4836741855096654  0.11415403573851786           0.9958150480030831 1.0000   
         C         C         1.0       0.4467116784428154  0.08918087907172612           0.5712548342678483 1.0000   
         C         C         1.0       0.4628607065014212  0.02416327308416011           0.6184535797726429 1.0000   
         C         C         1.0       0.4677738625875697  0.045907599391909804         0.6303194996467795 1.0000   
         C         C         1.0       0.46240454430455835           0.06738672333375195          0.6163925226475933 1.0000   
         C         C         1.0       0.4549239224388254  0.06570553680626667           0.5876388589793835 1.0000   
         C         C         1.0       0.45119631234496116           0.04275278549480466          0.5757474446726245 1.0000   
         C         C         1.0       0.45303185900271364           0.02243748234136378          0.5914409395127731 1.0000   
         C         C         1.0       0.4187059813197022  0.08795398395371867           0.5802143624108602 1.0000   
         C         C         1.0       0.4023940589102884  0.0740660925632215  0.564565304593046  1.0000   
         C         C         1.0       0.37810967154381503           0.07359990341528566          0.5716179629906616 1.0000   
         C         C         1.0       0.369623825050205   0.08754692887352045           0.592539305203198  1.0000   
         C         C         1.0       0.38686274830319806           0.09930703113323314          0.6105161757081109 1.0000   
         C         C         1.0       0.41082311563487267           0.09995262734283239          0.6041150442473833 1.0000   
         C         C         1.0       0.4498308820944484  0.13558926547688793           0.5767925138540417 1.0000   
         C         C         1.0       0.4634512841788205  0.15581259377672751           0.57730752097716   1.0000   
         C         C         1.0       0.48797175487982763           0.15403115684250926          0.5800941439372505 1.0000   
         C         C         1.0       0.4979827735499784  0.13198517558460543           0.5804550846281934 1.0000   
         C         C         1.0       0.4847074927354626  0.11175745064807871           0.5807653604260148 1.0000   
         C         C         1.0       0.4605748811385523  0.11295063980090793           0.578806045906498  1.0000   
         H         H         1.0       0.5553929628051337  0.11469570646671746           0.9649360278902418 1.0000   
         H         H         1.0       0.48488158706103146           0.08152867641212103          0.9538772087401117 1.0000   
         H         H         1.0       0.5011043595549999  0.042440872160229404         0.9492827442794797 1.0000   
         H         H         1.0       0.5732414477446858  0.07216364021905708           0.9558332289214602 1.0000   
         H         H         1.0       0.4709616853384612  0.1234214878744706  0.9327408741382043 1.0000   
         H         H         1.0       0.4621143989765557  0.1523637634737168  0.8958689590948234 1.0000   
         H         H         1.0       0.5254109692575698  0.19088880192632124           0.9194885113387349 1.0000   
         H         H         1.0       0.5350027901822273  0.16112224069304978           0.9557174814187878 1.0000   
         H         H         1.0       0.5058379023836076  0.09034167621513411           0.020730948113503622         1.0000   
         H         H         1.0       0.48149531961082015           0.06720400857129394          0.5369411829334023 1.0000   
         H         H         1.0       0.4245650133807738  0.1177076773737462  0.00473466568190517          1.0000   
         H         H         1.0       0.45507285839345335           0.13543989468911957          0.9773711537766799 1.0000   
         H         H         1.0       0.4735700705424292  0.04873968296413911           0.6511098736328221 1.0000   
         H         H         1.0       0.46441869688114323           0.08419349649109042          0.6284369965241984 1.0000   
         H         H         1.0       0.4440018963241892  0.04078278366393073           0.554588049284146  1.0000   
         H         H         1.0       0.44559343283115654           0.006069862577637197         0.5828256880480349 1.0000   
         H         H         1.0       0.4126116466288649  0.07948296007738032           0.9863647287881486 1.0000   
         H         H         1.0       0.37178195603556297           0.07369450838418334          0.9663431150690749 1.0000   
         H         H         1.0       0.3819196678026481  0.11133657003205544           0.6285413694779876 1.0000   
         H         H         1.0       0.4211312885835285  0.10950093613394296           0.618461176139023  1.0000   
         H         H         1.0       0.4306983785802623  0.13712064845417996           0.5726757837112363 1.0000   
         H         H         1.0       0.45495639810795274           0.1732494940525474 0.5732756370916139 1.0000   
         H         H         1.0       0.5166586574252306  0.13105704447176578           0.585658596961047  1.0000   
         H         H         1.0       0.49507947235309085           0.0957821180641636 0.5787216155500634 1.0000   
         C         C         1.0       0.6090461031288271  0.9128025947787524  0.5716301925710472 1.0000   
         C         C         1.0       0.6239150123994555  0.9324740270801838  0.5721825482182554 1.0000   
         C         C         1.0       0.6168015459305514  0.9532229354149733  0.5855212166912626 1.0000   
         C         C         1.0       0.5949848935333164  0.9555687501353683  0.5992692274234273 1.0000   
         C         C         1.0       0.5817272153886023  0.9347469950896956  0.6000399505982026 1.0000   
         C         C         1.0       0.5868359903552706  0.9150850494488757  0.5850778750080707 1.0000   
         H         H         1.0       0.641214921865713   0.9306064488466724  0.5619512181339021 1.0000   
         H         H         1.0       0.6270789171966571  0.9697402797707179  0.5844818480611869 1.0000   
         H         H         1.0       0.5652738203095251  0.9334337079381917  0.6121780799942022 1.0000   
         H         H         1.0       0.5760631653435635  0.8995414915983192  0.5874335614097699 1.0000   
         C         C         1.0       0.5437718009604704  0.9786865716897487  0.5944412519447372 1.0000   
         C         C         1.0       0.5573748632333645  0.9832289708586329  0.6179785710734435 1.0000   
         C         C         1.0       0.5449878787075186  0.9941924793284781  0.6403629191080613 1.0000   
         C         C         1.0       0.520147643419977   0.9927088234769356  0.6421291528547637 1.0000   
         C         C         1.0       0.5073591401585558  0.9834572341989065  0.6194362600705439 1.0000   
         C         C         1.0       0.5193144097235404  0.9775515095150732  0.594650995093648  1.0000   
         C         C         1.0       0.585727990989887   0.9784211909370895  0.6179327097553181 1.0000   
         C         C         1.0       0.5950360198178702  0.0034561681343086015        0.6052289832453004 1.0000   
         C         C         1.0       0.5984465027635968  0.02298524439136851           0.6236927161631287 1.0000   
         C         C         1.0       0.6019471084037613  0.04603626240542247           0.6150870203688038 1.0000   
         C         C         1.0       0.6092735567164219  0.04937043136289243           0.5868682289974206 1.0000   
         C         C         1.0       0.6057431427794516  0.031048087861513807         0.5670522303809703 1.0000   
         C         C         1.0       0.5979559797313853  0.007525148312321539         0.5763286915454081 1.0000   
         C         C         1.0       0.5850311968857022  0.9635003671452184  0.6711386645055445 1.0000   
         C         C         1.0       0.5947999031834006  0.9648734674167672  0.6975115082090825 1.0000   
         C         C         1.0       0.6184488710698395  0.9713901423204684  0.7014434695761167 1.0000   
         C         C         1.0       0.6320843570986057  0.9739070778237476  0.6774381102430709 1.0000   
         C         C         1.0       0.6216992837246483  0.974407984024428   0.6513236444906362 1.0000   
         C         C         1.0       0.5974158028350467  0.9717823670315757  0.6472726346411997 1.0000   
         C         C         1.0       0.629001386820211   0.9774098190088558  0.7326670744110656 1.0000   
         C         C         1.0       0.6328722555877111  0.0547952223728001  0.7181435995961839 1.0000   
         C         C         1.0       0.6108349341386     0.04363529587549797           0.7252772847842699 1.0000   
         C         C         1.0       0.6089867039875133  0.019166348439041414         0.7316421045330821 1.0000   
         C         C         1.0       0.6296475784957459  0.00672170464073929           0.7298195700866004 1.0000   
         C         C         1.0       0.6511126200093759  0.016312917315938202         0.7217279689470203 1.0000   
         C         C         1.0       0.6521290623720513  0.04064417019840216           0.7156522760082105 1.0000   
         C         C         1.0       0.6543026724065966  0.9655339259140817  0.7410207974627276 1.0000   
         C         C         1.0       0.6636627166164588  0.9432710105222938  0.7312871853101598 1.0000   
         C         C         1.0       0.6816463630224389  0.9320135450983478  0.7451133193731628 1.0000   
         C         C         1.0       0.6923894869493644  0.9431043973275369  0.768790775294738  1.0000   
         C         C         1.0       0.685203575805287   0.965744624841912   0.7769052467167263 1.0000   
         C         C         1.0       0.6670727590910314  0.9768550008071539  0.7636641515188071 1.0000   
         C         C         1.0       0.6074686791464643  0.9821100602490075  0.7828148875250903 1.0000   
         C         C         1.0       0.5963512842261323  0.9732629688560139  0.8055365113728151 1.0000   
         C         C         1.0       0.588898120826855   0.9494970210216273  0.8059414617515994 1.0000   
         C         C         1.0       0.5958603684011734  0.9339147864906092  0.784050864713877  1.0000   
         C         C         1.0       0.6071779242391794  0.9436123364112183  0.7596421098881985 1.0000   
         C         C         1.0       0.613908966861759   0.9678405954368726  0.7590314579738984 1.0000   
         H         H         1.0       0.5539962050727039  0.9714840237302789  0.5764690794397014 1.0000   
         H         H         1.0       0.5549778513490081  0.00214397112825071           0.657519069851261  1.0000   
         H         H         1.0       0.5109762068784776  0.9960950506144379  0.6607563099979638 1.0000   
         H         H         1.0       0.5097315794191978  0.9686321110130381  0.5774602812264131 1.0000   
         H         H         1.0       0.5967986895676783  0.0208073916622471  0.6465035458651406 1.0000   
         H         H         1.0       0.6026924525873713  0.05898411712590601           0.6328976512108934 1.0000   
         H         H         1.0       0.6112308479740252  0.03241340333763887           0.5454006630607023 1.0000   
         H         H         1.0       0.5932136239507241  0.9939924594922627  0.5610547266076938 1.0000   
         H         H         1.0       0.5665536004956699  0.9589182271753991  0.6698423563795942 1.0000   
         H         H         1.0       0.5828442856891424  0.9648912669424328  0.7167124547937767 1.0000   
         H         H         1.0       0.6510222171467209  0.9807044053080342  0.6804909282820727 1.0000   
         H         H         1.0       0.632942786738647   0.9775533555664129  0.6321858517526554 1.0000   
         H         H         1.0       0.5973791638379393  0.056142358123729696         0.7274910594867324 1.0000   
         H         H         1.0       0.5916996290150546  0.010766443577480578         0.7365661292123503 1.0000   
         H         H         1.0       0.6676514373116554  0.006332916626841545         0.7182242889667727 1.0000   
         H         H         1.0       0.6687847138930004  0.0476082424189439  0.7079068967885386 1.0000   
         H         H         1.0       0.6560294384596469  0.9316666092476968  0.7131021172469424 1.0000   
         H         H         1.0       0.6886664461620483  0.9150094805776324  0.7381804996919447 1.0000   
         H         H         1.0       0.6938928213967966  0.9731345495082969  0.7954921960013897 1.0000   
         H         H         1.0       0.6613365137251653  0.9950286968460327  0.7728754331875014 1.0000   
         H         H         1.0       0.6115226574528471  0.001344519215167539         0.7838821837162667 1.0000   
         H         H         1.0       0.5921354375013971  0.9843876003138089  0.822572107694211  1.0000   
         H         H         1.0       0.5914925531614555  0.9156085052352211  0.7863905616683418 1.0000   
         H         H         1.0       0.6113913761400339  0.9319074432889675  0.7419397078823774 1.0000   
         C         C         1.0       0.6816242286525607  0.9317475055223411  0.8379209518018531 1.0000   
         C         C         1.0       0.6941335059560022  0.9395086555549446  0.8612818899965767 1.0000   
         C         C         1.0       0.6826726914149198  0.9545427496743955  0.8807996126814563 1.0000   
         C         C         1.0       0.6582794864082994  0.961148894729208   0.8780628768947345 1.0000   
         C         C         1.0       0.6460726681254272  0.9513961425706813  0.8545981108432984 1.0000   
         C         C         1.0       0.6581472420489257  0.9379446742629014  0.8343990341072215 1.0000   
         H         H         1.0       0.7118933505783489  0.9329255136902973  0.8647681387509611 1.0000   
         H         H         1.0       0.6902657119756173  0.9583965678977961  0.902142384344182  1.0000   
         H         H         1.0       0.627868018988748   0.9572473117954162  0.8489832987674786 1.0000   
         H         H         1.0       0.647247988212792   0.9306845837964632  0.8178127222403859 1.0000   
         C         C         1.0       0.6341959444576981  0.008541653086210133         0.8595453393461838 1.0000   
         C         C         1.0       0.6314877027291954  0.0003719845543306288        0.8867908596663377 1.0000   
         C         C         1.0       0.6138239116995589  0.011427733148508645         0.9034902845927356 1.0000   
         C         C         1.0       0.5983160385190512  0.027769079552996345         0.8919758419739235 1.0000   
         C         C         1.0       0.5981105607962178  0.03249390842572808           0.8636465140325161 1.0000   
         C         C         1.0       0.6180186965434146  0.024364160722025296         0.8483425433073429 1.0000   
         C         C         1.0       0.6447483703151718  0.9785537992630675  0.9012123502735274 1.0000   
         C         C         1.0       0.6635892549126646  0.9920335916336158  0.9236541359400807 1.0000   
         C         C         1.0       0.6565207393111071  0.9929229581908724  0.9526729312114396 1.0000   
         C         C         1.0       0.6708709743772168  0.003924379283580137         0.9733183380590704 1.0000   
         C         C         1.0       0.6922776289273311  0.01517251602988634           0.9648086909926582 1.0000   
         C         C         1.0       0.6987715218993918  0.015243038009136178         0.9374902396908257 1.0000   
         C         C         1.0       0.6848202599291399  0.0043312239486101856        0.917291090815339  1.0000   
         C         C         1.0       0.6050904097057823  0.9565448337167081  0.9005164101281725 1.0000   
         C         C         1.0       0.5893854841527075  0.9392339961610545  0.908948845148034  1.0000   
         C         C         1.0       0.5931517981404204  0.927948752347818   0.9352761467064109 1.0000   
         C         C         1.0       0.6164052662595249  0.9285260851925599  0.945427256718181  1.0000   
         C         C         1.0       0.6334219193873704  0.9428917976041913  0.9328104855180763 1.0000   
         C         C         1.0       0.6266305804658758  0.9585261527486505  0.9117865881929927 1.0000   
         C         C         1.0       0.572748362339227   0.9165646991798169  0.9539319226328068 1.0000   
         C         C         1.0       0.549595618035925   0.9897529404091707  0.9730641641249274 1.0000   
         C         C         1.0       0.5353691846382703  0.9743386744859992  0.9565835509502493 1.0000   
         C         C         1.0       0.5429326085995606  0.9511759913026848  0.9526154039062406 1.0000   
         C         C         1.0       0.5617601486105848  0.9409980623394931  0.9660540531495515 1.0000   
         C         C         1.0       0.5736332065034893  0.9551068959032862  0.9855181387722549 1.0000   
         C         C         1.0       0.5685276177634834  0.9801110144316849  0.9878275299292334 1.0000   
         C         C         1.0       0.5788545906730813  0.8981590428684308  0.9800749093000783 1.0000   
         C         C         1.0       0.5980822378217197  0.8834130247355497  0.9766586190038267 1.0000   
         C         C         1.0       0.6035280158815992  0.8681139096676285  0.9978390672722417 1.0000   
         C         C         1.0       0.5904944136321033  0.8682445606756974  0.0225942406305919 1.0000   
         C         C         1.0       0.5710352360318768  0.8823750035069502  0.025154989700950203         1.0000   
         C         C         1.0       0.5643286547432951  0.8971435034637684  0.0039980324725257255        1.0000   
         C         C         1.0       0.5337506493865379  0.8933852290520689  0.9420284924019328 1.0000   
         C         C         1.0       0.5226961262873413  0.8728097965394758  0.930205503334143  1.0000   
         C         C         1.0       0.5344944079146091  0.8552769978397224  0.9133159014058432 1.0000   
         C         C         1.0       0.5579637570324754  0.8606119003827527  0.9062173862791268 1.0000   
         C         C         1.0       0.5688841478921985  0.8822878113402597  0.9161040384528966 1.0000   
         C         C         1.0       0.5576688186992235  0.8983040498172838  0.9341694017728912 1.0000   
         H         H         1.0       0.6485900418152851  0.0009676230189175072        0.8478421330698451 1.0000   
         H         H         1.0       0.6132933591439709  0.009504299439368369         0.9264928852478671 1.0000   
         H         H         1.0       0.5835916285773878  0.03181176373916217           0.9057127722369297 1.0000   
         H         H         1.0       0.6202672847139069  0.03105184973999986           0.8265566905191551 1.0000   
         H         H         1.0       0.6375116644163197  0.9867378766219527  0.957961277148618  1.0000   
         H         H         1.0       0.6666173714733932  0.0010577567325120718        0.9947589810220132 1.0000   
         H         H         1.0       0.7134797530030789  0.025331273174929336         0.9298145644448967 1.0000   
         H         H         1.0       0.6873878719856985  0.009932647601313516         0.8952032543828499 1.0000   
         H         H         1.0       0.6009623171766278  0.967012543924331   0.883277681282786  1.0000   
         H         H         1.0       0.571427040010266   0.93951195340825    0.8996561833316541 1.0000   
         H         H         1.0       0.6221963222922764  0.9230669231790435  0.9663477879727298 1.0000   
         H         H         1.0       0.6521274894039535  0.9431112900552955  0.9389943439431728 1.0000   
         H         H         1.0       0.5216058578918117  0.9805770183914334  0.940732287493908  1.0000   
         H         H         1.0       0.5309775555244997  0.9425128436162469  0.9376576003772599 1.0000   
         H         H         1.0       0.5896913172993101  0.9501229608298056  0.9967154112016001 1.0000   
         H         H         1.0       0.5791037499764339  0.9929561314452254  0.9990574439290413 1.0000   
         H         H         1.0       0.6069565234449592  0.8800729142980408  0.9570681894127416 1.0000   
         H         H         1.0       0.6170202919656321  0.8550568412895865  0.9933886522226678 1.0000   
         H         H         1.0       0.560175470007029   0.8838170502009444  0.04360454154161064          1.0000   
         H         H         1.0       0.5486329412981704  0.9072809104759316  0.006847085839878808         1.0000   
         H         H         1.0       0.5245034166615777  0.9060543435607743  0.955122627816651  1.0000   
         H         H         1.0       0.5038009719579633  0.8687033891086193  0.9349871764427311 1.0000   
         H         H         1.0       0.5698414777295059  0.8493854496596566  0.8940501540630122 1.0000   
         H         H         1.0       0.5882818417608505  0.8840071623547896  0.9103998307509814 1.0000   
         C         C         1.0       0.5785252747340911  0.265827068830483   0.7990147518922905 1.0000   
         C         C         1.0       0.5785224749561338  0.2902027101879433  0.8064316620953186 1.0000   
         C         C         1.0       0.600364034017191   0.2997703900148027  0.8166269100407563 1.0000   
         C         C         1.0       0.6207200254462226  0.2858589714601838  0.8209817235067177 1.0000   
         C         C         1.0       0.62008241138396    0.2625495140247124  0.8088783826718776 1.0000   
         C         C         1.0       0.5996514506982517  0.25261554784110546           0.7995257123533853 1.0000   
         H         H         1.0       0.5627364573414936  0.30179896232765985           0.8047340692447912 1.0000   
         H         H         1.0       0.6011782003795744  0.3187254540271935  0.820706468202791  1.0000   
         H         H         1.0       0.6365630883832686  0.2521693923700608  0.8085374860850717 1.0000   
         H         H         1.0       0.6009924642868588  0.2344404439257528  0.790893992694005  1.0000   
         C         C         1.0       0.6511486987555712  0.26562700537830186           0.8672512496898838 1.0000   
         C         C         1.0       0.6623428640006922  0.28174128364584156           0.8498873650582607 1.0000   
         C         C         1.0       0.6867768066542864  0.28263523394694373           0.8493664999595575 1.0000   
         C         C         1.0       0.6996124560289444  0.2641318147097789  0.8614892366829426 1.0000   
         C         C         1.0       0.6878512183824612  0.24588670828891962           0.8750552582722728 1.0000   
         C         C         1.0       0.6640604164006499  0.24879056691062404           0.8808852730222587 1.0000   
         C         C         1.0       0.6457548801523857  0.2983889955341157  0.829211716285792  1.0000   
         C         C         1.0       0.6467465671861148  0.32263115962380184           0.8490852395601394 1.0000   
         C         C         1.0       0.6634661168139672  0.34060764634144153           0.8437645687418487 1.0000   
         C         C         1.0       0.6658402517413171  0.36005536393572896           0.8603545692647945 1.0000   
         C         C         1.0       0.6515740638911272  0.36392437611624756           0.8835371656011126 1.0000   
         C         C         1.0       0.6333791899470702  0.34785495974463476           0.8881454426364074 1.0000   
         C         C         1.0       0.6313476323561068  0.3269403795093308  0.8717992255504412 1.0000   
         C         C         1.0       0.6706008135939764  0.28228836945113944           0.7859632790308165 1.0000   
         C         C         1.0       0.6756979241312397  0.2814736135085201  0.7579156674858792 1.0000   
         C         C         1.0       0.6672335559585716  0.2983730727079893  0.7395328710081356 1.0000   
         C         C         1.0       0.654617257651886   0.3177599723236718  0.7526910285887255 1.0000   
         C         C         1.0       0.6499291520126893  0.3193880925307042  0.7806852797120897 1.0000   
         C         C         1.0       0.6569058759403773  0.30093904663951193           0.7986877159748151 1.0000   
         C         C         1.0       0.663349504994077   0.292783791403381   0.7059964110813274 1.0000   
         C         C         1.0       0.7097274577741617  0.23493673810324003           0.6765830473431008 1.0000   
         C         C         1.0       0.6872436421713204  0.23718043118136728           0.6651195215798362 1.0000   
         C         C         1.0       0.6733122543446809  0.2571430794276316  0.6719897720081763 1.0000   
         C         C         1.0       0.681609980233382   0.27353854689197665           0.6920693934302272 1.0000   
         C         C         1.0       0.7049809305705977  0.2723051204430794  0.7013674588308647 1.0000   
         C         C         1.0       0.7185815598973853  0.25250223516969333           0.6948701223770035 1.0000   
         C         C         1.0       0.6674152878773616  0.3148636805764016  0.6851097050517193 1.0000   
         C         C         1.0       0.6863673644487919  0.3313915514674544  0.6900005539523579 1.0000   
         C         C         1.0       0.6903474507142074  0.3494827705052012  0.6717289118251943 1.0000   
         C         C         1.0       0.6771312195691744  0.3501470720034405  0.6471132171922441 1.0000   
         C         C         1.0       0.6600593342647735  0.3332284901855087  0.641552714505911  1.0000   
         C         C         1.0       0.6544743282155467  0.3156128425984759  0.6608051664860705 1.0000   
         C         C         1.0       0.6175434797162892  0.2988249373673877  0.7057646726766821 1.0000   
         C         C         1.0       0.5947909641949213  0.28972630734825117           0.7036621784018424 1.0000   
         C         C         1.0       0.5905636722676145  0.26611828561859024           0.7083729574111548 1.0000   
         C         C         1.0       0.6083861001392584  0.25116847585583296           0.718144382396963  1.0000   
         C         C         1.0       0.6314438511242814  0.25963743471260003           0.7173037189567643 1.0000   
         C         C         1.0       0.6365766400921516  0.2832065933771121  0.7099166572450004 1.0000   
         H         H         1.0       0.6323079497807161  0.26416799291553694           0.8697670785616042 1.0000   
         H         H         1.0       0.6973025953066959  0.29764132716794345           0.8416107510811808 1.0000   
         H         H         1.0       0.7184531401023342  0.26367505638953076           0.8592857561972811 1.0000   
         H         H         1.0       0.6555234080630004  0.235200732206725   0.891638853445936  1.0000   
         H         H         1.0       0.6766434450144504  0.33856574524942895           0.8253406151967977 1.0000   
         H         H         1.0       0.6797028967049705  0.371755589689729   0.8528435525287513 1.0000   
         H         H         1.0       0.6210987832702815  0.3501218416680962  0.9062175327684722 1.0000   
         H         H         1.0       0.6206674645998698  0.3132592553859505  0.8820011134537676 1.0000   
         H         H         1.0       0.675820897967889   0.26648805268065145           0.7978907574369434 1.0000   
         H         H         1.0       0.6836366936476227  0.2653650968226692  0.7508844041744588 1.0000   
         H         H         1.0       0.6489429043863222  0.3312069347952207  0.7376610560195024 1.0000   
         H         H         1.0       0.6399988485710879  0.3335768231678384  0.7904825191350647 1.0000   
         H         H         1.0       0.6808846305542863  0.2225566577194283  0.6515389660162607 1.0000   
         H         H         1.0       0.6547925059818671  0.2585252781761322  0.6634237601992462 1.0000   
         H         H         1.0       0.7129124358296326  0.28435271117413596           0.7149356970200565 1.0000   
         H         H         1.0       0.7367345986128894  0.2510992048332931  0.7041186683558506 1.0000   
         H         H         1.0       0.6966742798564267  0.33043432077357    0.7090129917754281 1.0000   
         H         H         1.0       0.7034503365521894  0.3631687224173165  0.6787716542506501 1.0000   
         H         H         1.0       0.6507428690208108  0.3320517464242567  0.6224701280614788 1.0000   
         H         H         1.0       0.640619096600228   0.3014946670504303  0.6533173763837979 1.0000   
         H         H         1.0       0.6217807191459472  0.31716444768507696           0.699551285897195  1.0000   
         H         H         1.0       0.5814637856269161  0.30251309519545566           0.6982554203188089 1.0000   
         H         H         1.0       0.6054551625208905  0.23197685461751988           0.7220721080637268 1.0000   
         H         H         1.0       0.6458861225450534  0.24821642976731398           0.7239028863267899 1.0000   
         C         C         1.0       0.5912402759666249  0.22320540840917732           0.03419556504331189          1.0000   
         C         C         1.0       0.5902055521822482  0.24781042784827742           0.028407844785319325         1.0000   
         C         C         1.0       0.6092552625289525  0.2621808196036538  0.03779568082789386          1.0000   
         C         C         1.0       0.628847177009273   0.25341329793809303           0.05265350190651885          1.0000   
         C         C         1.0       0.6281747444532417  0.22862508469769074           0.05838130682603393          1.0000   
         C         C         1.0       0.6102210347647173  0.21387014426325077           0.047506125180325265         1.0000   
         H         H         1.0       0.5760164335743856  0.25708308828294907           0.01810299499780088          1.0000   
         H         H         1.0       0.6086860487538877  0.28192390300912545           0.03477706882363685          1.0000   
         H         H         1.0       0.6397695921069035  0.21994262530150394           0.07068679495114161          1.0000   
         H         H         1.0       0.6118782582218715  0.19557950259036375           0.05244784946333736          1.0000   
         C         C         1.0       0.6805325534136248  0.25435787071133403           0.10578402915745677          1.0000   
         C         C         1.0       0.6719184841095355  0.2550908529772903  0.07820832604232386          1.0000   
         C         C         1.0       0.6850984844540187  0.2413984566998338  0.05677529636339118          1.0000   
         C         C         1.0       0.702423160348651   0.2259789777142728  0.06395317603491812          1.0000   
         C         C         1.0       0.7106886738209341  0.22591586051880588           0.0913145074940167 1.0000   
         C         C         1.0       0.6993992089138922  0.23986044239100507           0.11169413650063209          1.0000   
         C         C         1.0       0.6483662822730003  0.26985988863190985           0.06978445824082735          1.0000   
         C         C         1.0       0.6316171777222487  0.27942966435666944           0.09394256131836798          1.0000   
         C         C         1.0       0.6205448730845796  0.3018495934959355  0.09255975517670612          1.0000   
         C         C         1.0       0.5759065872223295  0.2477811755511913  0.6333919854485328 1.0000   
         C         C         1.0       0.5804151162689944  0.23226734151661557           0.655880249314514  1.0000   
         C         C         1.0       0.595484070699747   0.21349166432220673           0.6543385944891971 1.0000   
         C         C         1.0       0.6044885012115363  0.20645951398479073           0.6282838912745948 1.0000   
         C         C         1.0       0.6600701291368615  0.2925956860424922  0.022538299069934542         1.0000   
         C         C         1.0       0.6733474623942298  0.3099702785874567  0.008746938704068175         1.0000   
         C         C         1.0       0.6932061657300956  0.3217144589683879  0.022233434967333432         1.0000   
         C         C         1.0       0.6918572026998002  0.32093804169262785           0.051744692167416284         1.0000   
         C         C         1.0       0.6759122300465891  0.30693525301293484           0.06568020684468245          1.0000   
         C         C         1.0       0.660463893235815   0.29086035641379476           0.05130191700971243          1.0000   
         C         C         1.0       0.7136673997715686  0.33392534271321606           0.002709407700991928         1.0000   
         C         C         1.0       0.7462198384145727  0.26265601350487566           0.9849561049629402 1.0000   
         C         C         1.0       0.7283911993381949  0.2710944586786984  0.9676300266871749 1.0000   
         C         C         1.0       0.7194760029382886  0.2942650895360086  0.9705994033919485 1.0000   
         C         C         1.0       0.7260092020237172  0.3088499663344634  0.9939188073968378 1.0000   
         C         C         1.0       0.7434351225610892  0.2991002581499352  0.012817783675379557         1.0000   
         C         C         1.0       0.7533818477673339  0.27656374852516136           0.007473290666446308         1.0000   
         C         C         1.0       0.7309739504168173  0.35325142533613935           0.016840902246905154         1.0000   
         C         C         1.0       0.7218466439987964  0.37056959408716494           0.03506373653508743          1.0000   
         C         C         1.0       0.7345334516039995  0.3902037501411768  0.0441984984348085 1.0000   
         C         C         1.0       0.7570697322901915  0.39392071877342033           0.032062100949921346         1.0000   
         C         C         1.0       0.7678832240786232  0.3772010632231723  0.016479517831598622         1.0000   
         C         C         1.0       0.7542967659061712  0.3569939394391287  0.007390426992424093         1.0000   
         C         C         1.0       0.7141818485392966  0.3475400226072102  0.950816756770722  1.0000   
         C         C         1.0       0.70758425015374    0.3623620488053006  0.9293462752523677 1.0000   
         C         C         1.0       0.6897830570769484  0.3792574793034965  0.9355961319488999 1.0000   
         C         C         1.0       0.6777696301966919  0.37977983104797836           0.9611361583987977 1.0000   
         C         C         1.0       0.6840631780660069  0.3635925838069036  0.9819999375829663 1.0000   
         C         C         1.0       0.702766364413304   0.34789353115551047           0.976436717660896  1.0000   
         H         H         1.0       0.6532920560072186  0.2196507313455607  0.6110171945994497 1.0000   
         H         H         1.0       0.67669842492315    0.24003094979786052           0.03570251243005007          1.0000   
         H         H         1.0       0.710296336813984   0.2163686168804803  0.045279588266962545         1.0000   
         H         H         1.0       0.689301535844664   0.19987349507803567           0.6120708832268148 1.0000   
         H         H         1.0       0.6256238808987922  0.3153254303719509  0.07661350255089427          1.0000   
         H         H         1.0       0.5642646174294356  0.2633367627389133  0.6345165232176336 1.0000   
         H         H         1.0       0.5948607697487905  0.19992572516088936           0.6697850815249062 1.0000   
         H         H         1.0       0.6108895602832465  0.18824330879426485           0.6270405675530056 1.0000   
         H         H         1.0       0.6473794948464712  0.2803481095134591  0.009735829505694182         1.0000   
         H         H         1.0       0.6706108524200288  0.31136910420848435           0.9850159058440163 1.0000   
         H         H         1.0       0.7065182185521827  0.32951512198694366           0.06548191781283585          1.0000   
         H         H         1.0       0.6781699908599584  0.3043127520895318  0.08773802123652708          1.0000   
         H         H         1.0       0.7221093760878236  0.2599417628388368  0.9496749873947098 1.0000   
         H         H         1.0       0.7040911367589769  0.29820817820977835           0.9589128039040393 1.0000   
         H         H         1.0       0.7480418608575039  0.3092075502581084  0.03136295020078017          1.0000   
         H         H         1.0       0.7662419490008056  0.2678203800849242  0.021344250384571106         1.0000   
         H         H         1.0       0.7027734809852902  0.3699567102617544  0.038740242366943844         1.0000   
         H         H         1.0       0.7258651142113762  0.40478375657225646           0.055238924780538046         1.0000   
         H         H         1.0       0.7871612722964094  0.37799001590093867           0.013290405883233936         1.0000   
         H         H         1.0       0.7616966774112619  0.34428377905261626           0.9922313639750384 1.0000   
         H         H         1.0       0.7295457761146859  0.3356219158514756  0.950072989771219  1.0000   
         H         H         1.0       0.7167900359582272  0.36170334867734166           0.9088955680617542 1.0000   
         H         H         1.0       0.6646473656327285  0.3942950497832451  0.964483756736585  1.0000   
         H         H         1.0       0.6805945654877468  0.3672179149314657  0.003179468013344122         1.0000   
         C         C         1.0       0.7198367415434671  0.03972007615962147           0.7261488912914457 1.0000   
         C         C         1.0       0.7168218234165105  0.029747183860188816         0.6993092793366813 1.0000   
         C         C         1.0       0.716766195305506   0.04510676075941444           0.6761461999531085 1.0000   
         C         C         1.0       0.7204722410705153  0.07012853367299851           0.6786811417659324 1.0000   
         C         C         1.0       0.7261865883562663  0.07842946991626257           0.7053246026658014 1.0000   
         C         C         1.0       0.7262143395201556  0.0634147570712345  0.7293011728091692 1.0000   
         H         H         1.0       0.7103820592525695  0.011896870478706356         0.6959869289311997 1.0000   
         H         H         1.0       0.7131330727573642  0.0384524864738236  0.6531468266143124 1.0000   
         H         H         1.0       0.72915261275721    0.09751026053498056           0.7078491549086973 1.0000   
         H         H         1.0       0.7291535830486418  0.07144779945112165           0.7508742740012998 1.0000   
         C         C         1.0       0.6956779645496229  0.12150458763636895           0.6812915014383908 1.0000   
         C         C         1.0       0.7113525587118992  0.11499692260752016           0.6593533451273063 1.0000   
         C         C         1.0       0.7192017709526813  0.13426505974267758           0.642546729603579  1.0000   
         C         C         1.0       0.7186470609732575  0.15734230943186892           0.651697217052662  1.0000   
         C         C         1.0       0.7065838701580627  0.16313734433936308           0.6752808512706236 1.0000   
         C         C         1.0       0.695363020840042   0.14486222317216693           0.690378830563092  1.0000   
         C         C         1.0       0.7201823777940694  0.08792135703987271           0.6526674321792636 1.0000   
         C         C         1.0       0.7002995169567956  0.0816528613985828  0.6285615176406766 1.0000   
         C         C         1.0       0.7030783877476107  0.08746162702681065           0.6001735797615833 1.0000   
         C         C         1.0       0.6836017850694895  0.08681427464519095           0.5831835520313242 1.0000   
         C         C         1.0       0.6621855436560089  0.07661990345714487           0.5923246534499076 1.0000   
         C         C         1.0       0.6611911579825059  0.06882882271714053           0.6194849386708189 1.0000   
         C         C         1.0       0.6787521206896486  0.07389475581182724           0.6385089177578028 1.0000   
         C         C         1.0       0.7623331545270144  0.1024013584643029  0.66139593433832   1.0000   
         C         C         1.0       0.785082264911222   0.10884717871272209           0.652060805540118  1.0000   
         C         C         1.0       0.7908135654539158  0.10212838693926642           0.6242460801995261 1.0000   
         C         C         1.0       0.778079049632113   0.08354869807723507           0.6112358265833008 1.0000   
         C         C         1.0       0.7568850871856299  0.07569409421844334           0.6225593003561826 1.0000   
         C         C         1.0       0.7468979769353022  0.0883147439181617  0.6448559610145518 1.0000   
         C         C         1.0       0.8144651388115122  0.12514750553580462           0.10890844809716649          1.0000   
         C         C         1.0       0.7679785948314637  0.1854220497103071  0.08947902777606553          1.0000   
         C         C         1.0       0.7834343786664347  0.1863357743208171  0.11103669808841721          1.0000   
         C         C         1.0       0.7966567163973163  0.16598064860132178           0.11779602453079652          1.0000   
         C         C         1.0       0.7984908054706118  0.14695092244276814           0.09878104804008725          1.0000   
         C         C         1.0       0.7834887169452273  0.1475029575320255  0.07513449394177063          1.0000   
         C         C         1.0       0.7685932641786476  0.16623540621661287           0.07050607780430806          1.0000   
         C         C         1.0       0.8296978728951447  0.11211816132603565           0.08415225573319285          1.0000   
         C         C         1.0       0.8349732131685059  0.08755599013343106           0.08263986680307767          1.0000   
         C         C         1.0       0.8475563840017724  0.07878188434075761           0.058350667516594124         1.0000   
         C         C         1.0       0.8556150775918783  0.09213346550759881           0.0369206912947051 1.0000   
         C         C         1.0       0.852760091066183   0.11674175952820062           0.03958694703942678          1.0000   
         C         C         1.0       0.8394285444983498  0.12611785431699224           0.06191695156187915          1.0000   
         C         C         1.0       0.8508904368756149  0.1505141258446106  0.12731586641648351          1.0000   
         C         C         1.0       0.8699204547762958  0.1538795559491876  0.1448626714102006 1.0000   
         C         C         1.0       0.8725291216941784  0.13951510966870065           0.16801391797049692          1.0000   
         C         C         1.0       0.8612442254320923  0.12684561811723205           0.6631141583736826 1.0000   
         C         C         1.0       0.8416966159718019  0.11683666620153503           0.6486740366055859 1.0000   
         C         C         1.0       0.8351662275691878  0.13081585944798366           0.1304703737333508 1.0000   
         H         H         1.0       0.6864628901575659  0.10796393544719729           0.6937741926878768 1.0000   
         H         H         1.0       0.7311308725659863  0.13109639447823102           0.6243488315922172 1.0000   
         H         H         1.0       0.7256332957799171  0.17146402217229562           0.6405758611628464 1.0000   
         H         H         1.0       0.6865873657353416  0.14925255064422374           0.7106595913581005 1.0000   
         H         H         1.0       0.7187837122785932  0.09638379188085164           0.5932530897871884 1.0000   
         H         H         1.0       0.6847440700489814  0.0943685722772023  0.5616434788659258 1.0000   
         H         H         1.0       0.6449302935195136  0.06250350132883842           0.6281878492467903 1.0000   
         H         H         1.0       0.6742655571911454  0.07019312547989275           0.6601217897549628 1.0000   
         H         H         1.0       0.7572265425599808  0.11105974310565969           0.6820847199823269 1.0000   
         H         H         1.0       0.7959544994681893  0.12311256072074184           0.6636198704331683 1.0000   
         H         H         1.0       0.7828408998729733  0.0783578800880468  0.5904413147969478 1.0000   
         H         H         1.0       0.7479182074808254  0.06281299973508905           0.6086023415860642 1.0000   
         H         H         1.0       0.7816025032775757  0.2027057559181927  0.12440236356180856          1.0000   
         H         H         1.0       0.8047092695391221  0.16711853491230033           0.13782841292089199          1.0000   
         H         H         1.0       0.782429653546816   0.13112130206010345           0.06018447881751188          1.0000   
         H         H         1.0       0.7564062858246129  0.16483135252428027           0.05227363070095281          1.0000   
         H         H         1.0       0.8282480816848649  0.07550000189459828           0.09865848174862046          1.0000   
         H         H         1.0       0.8513484933487723  0.05864964391357397           0.0581261704641336 1.0000   
         H         H         1.0       0.8578414631927838  0.12916422040163586           0.022833912061165806         1.0000   
         H         H         1.0       0.8384877230942674  0.1442946433300766  0.063721601548969  1.0000   
         H         H         1.0       0.8492458076258227  0.1635969739838537  0.10956626531797586          1.0000   
         H         H         1.0       0.8825924866547848  0.16806179211749298           0.14054459227899074          1.0000   
         H         H         1.0       0.8680587667275383  0.11752585799004223           0.6819732462380195 1.0000   
         H         H         1.0       0.8366255788364161  0.09884203035845375           0.6554769631525006 1.0000   
         C         C         1.0       0.843167570923449   0.09989980758787217           0.9702548126198596 1.0000   
         C         C         1.0       0.8261927452219266  0.08320602516299358           0.9656928364403415 1.0000   
         C         C         1.0       0.8024424773223683  0.08972601752814098           0.9625051901513192 1.0000   
         C         C         1.0       0.7961842824122122  0.11395684386327841           0.9588547478042739 1.0000   
         C         C         1.0       0.8136650454654567  0.13114820183730141           0.9601267706861276 1.0000   
         C         C         1.0       0.83698365081119    0.12347153411012952           0.965312407589763  1.0000   
         H         H         1.0       0.83011767219295    0.06370656026255861           0.9676227600947452 1.0000   
         H         H         1.0       0.7897987808340025  0.07491176471597139           0.9621227793861266 1.0000   
         H         H         1.0       0.8098470128952872  0.14972212959920614           0.9598497263463523 1.0000   
         H         H         1.0       0.8509720927552353  0.13692382591502372           0.9653274644230628 1.0000   
         C         C         1.0       0.7700076453301898  0.15523306499093245           0.9905847358633291 1.0000   
         C         C         1.0       0.7605123070385058  0.145968130685257   0.9648477604281066 1.0000   
         C         C         1.0       0.7449701108211899  0.16055559726523852           0.9495092105446078 1.0000   
         C         C         1.0       0.7412424404848463  0.183868217591187   0.9570368686547995 1.0000   
         C         C         1.0       0.7492157474386784  0.19164456534886198           0.9835220883598224 1.0000   
         C         C         1.0       0.7652911900974366  0.1775929765397317  0.9993261064359173 1.0000   
         C         C         1.0       0.7686127961380366  0.1199552562186565  0.9549484984410664 1.0000   
         C         C         1.0       0.7496455769461343  0.10437229622761879           0.9747638470694175 1.0000   
         C         C         1.0       0.7259627330446214  0.10086002833182699           0.9642217023753529 1.0000   
         C         C         1.0       0.7107801463593131  0.0837601278021188  0.9754900817672927 1.0000   
         C         C         1.0       0.7185782865671881  0.06874405714618614           0.9969431411167982 1.0000   
         C         C         1.0       0.7390315302187273  0.07534155676478327           0.010775895339200758         1.0000   
         C         C         1.0       0.7543495670298743  0.09218571114391916           0.9985838187582221 1.0000   
         C         C         1.0       0.7765831469775882  0.1337130439549512  0.9041767751777108 1.0000   
         C         C         1.0       0.7710637810004342  0.13138482785405267           0.8752204967337334 1.0000   
         C         C         1.0       0.7575752751815401  0.11276372184883048           0.8635849492639898 1.0000   
         C         C         1.0       0.749187778521369   0.09476560203529373           0.881915222926802  1.0000   
         C         C         1.0       0.7571680849557954  0.09611163046437637           0.9093385373706722 1.0000   
         C         C         1.0       0.7679118830403012  0.1164886019986515  0.9214328058246015 1.0000   
         C         C         1.0       0.746277137002127   0.11578495365783041           0.832897712967338  1.0000   
         C         C         1.0       0.7047271831283379  0.18128615693290429           0.8529876306476619 1.0000   
         C         C         1.0       0.7256711760447447  0.183261605284327   0.8374580412122881 1.0000   
         C         C         1.0       0.7388074038523539  0.1638092730024824  0.8302230921220835 1.0000   
         C         C         1.0       0.7304300435764239  0.140107060377193   0.8374625681106663 1.0000   
         C         C         1.0       0.7090566633656772  0.1385972030154983  0.8530299307666166 1.0000   
         C         C         1.0       0.6982516102349386  0.15960053871663954           0.8623102845037233 1.0000   
         C         C         1.0       0.7309589129353873  0.09274605778763169           0.8204771236530337 1.0000   
         C         C         1.0       0.7421470680074123  0.06967734292931395           0.8208074883816241 1.0000   
         C         C         1.0       0.7315010266775341  0.050624943701856204         0.8074310281641035 1.0000   
         C         C         1.0       0.7092108109401948  0.05220471375285296           0.794652340658553  1.0000   
         C         C         1.0       0.6989153561439764  0.07530902995108782           0.7948823905023715 1.0000   
         C         C         1.0       0.7093147855672525  0.0948450599106105  0.8065385180566934 1.0000   
         C         C         1.0       0.7582886570042221  0.12477456266092798           0.7822960419393634 1.0000   
         C         C         1.0       0.7738389817104313  0.12373281585211976           0.7594690817284345 1.0000   
         C         C         1.0       0.797483368505921   0.11765006238464915           0.7630748167393527 1.0000   
         C         C         1.0       0.8060071894477987  0.11163456398920162           0.7893078603981296 1.0000   
         C         C         1.0       0.7908411697849015  0.11330566066457119           0.8127234336674406 1.0000   
         C         C         1.0       0.7665719398460729  0.11896922412782618           0.8093833333101195 1.0000   
         H         H         1.0       0.7797103891160475  0.14225812007905753           0.0035881436580835757        1.0000   
         H         H         1.0       0.7376652706952088  0.15224393156424965           0.9301617287776508 1.0000   
         H         H         1.0       0.7330856710166955  0.19656864190065773           0.9426999399694904 1.0000   
         H         H         1.0       0.7702663127952671  0.18586753546613927           0.019151019761210364         1.0000   
         H         H         1.0       0.7197762210704424  0.11255296583091139           0.9487301449871638 1.0000   
         H         H         1.0       0.6939559861468123  0.07872315538972935           0.9653462005936035 1.0000   
         H         H         1.0       0.7438892694216546  0.06571683375512216           0.030139691954103265         1.0000   
         H         H         1.0       0.7717582390951546  0.09421381191025091           0.007627367222546422         1.0000   
         H         H         1.0       0.784423496659849   0.15010170032428236           0.9129703714732254 1.0000   
         H         H         1.0       0.7753799136257948  0.14840280987077886           0.8656303927649173 1.0000   
         H         H         1.0       0.7386491617425823  0.07849823520680212           0.8760775302431661 1.0000   
         H         H         1.0       0.7521918929833936  0.08080964530210759           0.9221724290962064 1.0000   
         H         H         1.0       0.7332524243072872  0.20077488390173875           0.8309996925756598 1.0000   
         H         H         1.0       0.7562592128082335  0.16679862825581424           0.8220663807020909 1.0000   
         H         H         1.0       0.7011942554019498  0.12156078917490244           0.8603044635704292 1.0000   
         H         H         1.0       0.6806338754719796  0.15622925678201757           0.8720879590455916 1.0000   
         H         H         1.0       0.7617946654162311  0.06824226759606379           0.8246926400685373 1.0000   
         H         H         1.0       0.7426715126280906  0.03575322988100349           0.8063886720200952 1.0000   
         H         H         1.0       0.6802568669148462  0.0776613189482402  0.7894271592767846 1.0000   
         H         H         1.0       0.7016070149877854  0.1113748692360761  0.8043715098892192 1.0000   
         H         H         1.0       0.7398633397678223  0.1290597556668745  0.7803858785677492 1.0000   
         H         H         1.0       0.7678203267391388  0.13088949148376072           0.7382642167656003 1.0000   
         H         H         1.0       0.8252726043263284  0.10748500140700766           0.7894981450230089 1.0000   
         H         H         1.0       0.7990761976537101  0.1116040594833693  0.8321731875190524 1.0000   
         C         C         1.0       0.1850774993612368  0.22310443528233875           0.7344947136934507 1.0000   
         C         C         1.0       0.19957556376821814           0.2208078587012083 0.7111974045109923 1.0000   
         C         C         1.0       0.20800159928273884           0.1985932338077285 0.7048731613047441 1.0000   
         C         C         1.0       0.20153418011286253           0.17837867066010826          0.720288459302794  1.0000   
         C         C         1.0       0.18754208538157785           0.18118160592306998          0.744815508985902  1.0000   
         C         C         1.0       0.180200362145634   0.2040378930367691  0.751934065276941  1.0000   
         H         H         1.0       0.2057000674762612  0.23582903114102896           0.696501457499147  1.0000   
         H         H         1.0       0.22028351128036835           0.19774471126746215          0.6879907787668793 1.0000   
         H         H         1.0       0.18259939639991624           0.16709433285655087          0.7581802209458143 1.0000   
         H         H         1.0       0.16653461383355855           0.20521475706120187          0.7683044856282113 1.0000   
         C         C         1.0       0.2055033334847624  0.10725073156564502           0.7184862051437555 1.0000   
         C         C         1.0       0.1968890436298746  0.13138711316832233           0.7157702219283025 1.0000   
         C         C         1.0       0.17276195805441577           0.13333820127532225          0.712725681693814  1.0000   
         C         C         1.0       0.15777738168305583           0.11403528490265802          0.7120063073845311 1.0000   
         C         C         1.0       0.16614585942990232           0.09091555461174972          0.7105011678570807 1.0000   
         C         C         1.0       0.18970189721145264           0.08693904379343631          0.716008724231098  1.0000   
         C         C         1.0       0.2140062701357966  0.1544977995473554  0.7100943886013357 1.0000   
         C         C         1.0       0.23689100957827103           0.15744763152551272          0.7295249448223108 1.0000   
         C         C         1.0       0.2574755558195841  0.17020180850446653           0.7191787640854674 1.0000   
         C         C         1.0       0.27574505443778624           0.17614833338139954          0.7368611641184915 1.0000   
         C         C         1.0       0.27561654312633566           0.16915200467539804          0.765307022809791  1.0000   
         C         C         1.0       0.2579243251123514  0.15401502239481887           0.7749588550030927 1.0000   
         C         C         1.0       0.2380794706218494  0.14977595075744773           0.7577232174555395 1.0000   
         C         C         1.0       0.20491152133464435           0.15610293369860065          0.6553610120544406 1.0000   
         C         C         1.0       0.20824081641277253           0.14781832160404357          0.6277456365109119 1.0000   
         C         C         1.0       0.22655003718027808           0.1334040267437966 0.6211331703288419 1.0000   
         C         C         1.0       0.24142024249296037           0.12577404981209916          0.6427124925298981 1.0000   
         C         C         1.0       0.23851510488934596           0.1333218082045424 0.6706897941132336 1.0000   
         C         C         1.0       0.21914021608225553           0.14783424979087512          0.6780472599943701 1.0000   
         C         C         1.0       0.2291864374775478  0.12069628452133152           0.591004969301951  1.0000   
         C         C         1.0       0.1816562381705001  0.058963266859638486         0.6025789472326589 1.0000   
         C         C         1.0       0.17311856370304401           0.07934552112647175          0.588992267357012  1.0000   
         C         C         1.0       0.1885940204038231  0.09877351437416415           0.5865784370302671 1.0000   
         C         C         1.0       0.2125089099682951  0.09758464564349922           0.5940121920245351 1.0000   
         C         C         1.0       0.22037229977245124           0.07685654924002594          0.6075036814938463 1.0000   
         C         C         1.0       0.20509795565772843           0.05770351104845339          0.612553143355896  1.0000   
         C         C         1.0       0.257753338772418   0.11857976848529783           0.5866409084497634 1.0000   
         C         C         1.0       0.27313493237094094           0.13810449640354072          0.5908758069489116 1.0000   
         C         C         1.0       0.298021922575747   0.13621594659118497           0.5868579694233609 1.0000   
         C         C         1.0       0.30766333611829594           0.11402505016052467          0.5792021532039251 1.0000   
         C         C         1.0       0.2919544978189741  0.09607258878733171           0.571362885737708  1.0000   
         C         C         1.0       0.26834381031318266           0.0978671431137581 0.5757581834576619 1.0000   
         C         C         1.0       0.20172798685797308           0.06422175829084842          0.0346771574015885 1.0000   
         C         C         1.0       0.19095571661350047           0.08354272127366635          0.020084704817776577         1.0000   
         C         C         1.0       0.19533640574216685           0.10687708756678913          0.027993808972284207         1.0000   
         C         C         1.0       0.21171078087082376           0.11230522804523743          0.048704023829789556         1.0000   
         C         C         1.0       0.22031690026745943           0.1602155940326869 0.5588758791059178 1.0000   
         C         C         1.0       0.22334716792586642           0.13564883365929492          0.5624013562576777 1.0000   
         H         H         1.0       0.22455821351868202           0.10447274110228832          0.7224191071410381 1.0000   
         H         H         1.0       0.16234688008264253           0.14971446631939947          0.7068111001849131 1.0000   
         H         H         1.0       0.13910218006452746           0.11950317283354561          0.7050952501594684 1.0000   
         H         H         1.0       0.1952204427555225  0.0686811477829985  0.715842798347865  1.0000   
         H         H         1.0       0.2571475081063308  0.17747036843485248           0.6978072417850354 1.0000   
         H         H         1.0       0.29087816685604134           0.18645310848100383          0.7290062609804999 1.0000   
         H         H         1.0       0.2590960804345026  0.14591305219125725           0.7953727345887159 1.0000   
         H         H         1.0       0.22553740201699687           0.13788473555471517          0.7664923201222364 1.0000   
         H         H         1.0       0.19105505439250825           0.16782052031701325          0.6592048461148902 1.0000   
         H         H         1.0       0.19550143698642103           0.154650837435853  0.6134717054948325 1.0000   
         H         H         1.0       0.2553478864240899  0.11230163012410732           0.640110021329197  1.0000   
         H         H         1.0       0.25153782322016977           0.1270232348568625 0.6853359872681855 1.0000   
         H         H         1.0       0.15952740703418253           0.998426403311511  0.09209696959262925          1.0000   
         H         H         1.0       0.1797445015656664  0.11277137931669712           0.5755532760752262 1.0000   
         H         H         1.0       0.23911814706966186           0.0761302395450556 0.6142521106812415 1.0000   
         H         H         1.0       0.21251806296749703           0.042222707828049044         0.6219752722506008 1.0000   
         H         H         1.0       0.2656161628391053  0.15529812802584142           0.5977611047991508 1.0000   
         H         H         1.0       0.3106777845757897  0.15107734310761822           0.5896545866819862 1.0000   
         H         H         1.0       0.29837669933164673           0.08002184936422907          0.5605682632487753 1.0000   
         H         H         1.0       0.25780388065733173           0.08238679555199946          0.5695860961664089 1.0000   
         H         H         1.0       0.19456564865611156           0.0465609451020188 0.028380064007291983         1.0000   
         H         H         1.0       0.17630136227273835           0.07841077598269974          0.004599133591370874         1.0000   
         H         H         1.0       0.20958372162155664           0.18777733193338056          0.5299785751680399 1.0000   
         H         H         1.0       0.21802216347195705           0.17097119813060338          0.5775477143078958 1.0000   
         C         C         1.0       0.16247887954175189           0.13387659533047086          0.8268925388848396 1.0000   
         C         C         1.0       0.17658645339203805           0.14170685295069252          0.8483740526731008 1.0000   
         C         C         1.0       0.18983356735300413           0.12618936136316997          0.8632803736796102 1.0000   
         C         C         1.0       0.18842099625381326           0.10132332032934249          0.8607598275982916 1.0000   
         C         C         1.0       0.17660885343066351           0.09364839932534988          0.8359388637855023 1.0000   
         C         C         1.0       0.16421667893226827           0.10970485738939406          0.8179626258462872 1.0000   
         H         H         1.0       0.1773083198804275  0.16111292991687118           0.8517765075056182 1.0000   
         H         H         1.0       0.1986967274596149  0.1356184117508609  0.8792291492366585 1.0000   
         H         H         1.0       0.17450581076955798           0.07490021001942926          0.8296130784801834 1.0000   
         H         H         1.0       0.1543237601296699  0.10275494840886565           0.8011532653145055 1.0000   
         C         C         1.0       0.15762480103112686           0.05764766362230955          0.8847112996157418 1.0000   
         C         C         1.0       0.18204125733810525           0.05966892526595524          0.8923431548637336 1.0000   
         C         C         1.0       0.19244691276400597           0.0428832138862103 0.9103363300481939 1.0000   
         C         C         1.0       0.18045580889507476           0.021250674120235624         0.9146539258304592 1.0000   
         C         C         1.0       0.1586367927742991  0.01662703032609314           0.9028111469254838 1.0000   
         C         C         1.0       0.1467305176676806  0.035691916356765274         0.8912004513591575 1.0000   
         C         C         1.0       0.1976241554937643  0.08370038382516602           0.8850858057877696 1.0000   
         C         C         1.0       0.1959491715459981  0.09696743742127097           0.9151332925842827 1.0000   
         C         C         1.0       0.215343938461612   0.09978010463821341           0.933163526574635  1.0000   
         C         C         1.0       0.2138820871801573  0.11380049591578123           0.9572188566644232 1.0000   
         C         C         1.0       0.19193883370059958           0.12401272736338968          0.9642363795696273 1.0000   
         C         C         1.0       0.17193249939364058           0.1201994021903887 0.9469298188864685 1.0000   
         C         C         1.0       0.17438943795173192           0.10687893112374587          0.9227974040533524 1.0000   
         C         C         1.0       0.2330764521664034  0.05656298774232438           0.8651221059504232 1.0000   
         C         C         1.0       0.2538051655363361  0.053069747011698754         0.8506216080203136 1.0000   
         C         C         1.0       0.2668850332188947  0.07222843737175655           0.8402287503278447 1.0000   
         C         C         1.0       0.2601789209448553  0.09517285539670645           0.8506080128561505 1.0000   
         C         C         1.0       0.24204700026959863           0.09889433739494062          0.868842885910833  1.0000   
         C         C         1.0       0.22574338057196827           0.07997061195435062          0.8727886272185326 1.0000   
         C         C         1.0       0.2828141961968153  0.06935096181540201           0.8110010965929091 1.0000   
         C         C         1.0       0.21866057989558044           0.043527383906284856         0.7686502785934076 1.0000   
         C         C         1.0       0.22120707976613985           0.0671676910864718 0.7756178093019395 1.0000   
         C         C         1.0       0.24308224342233975           0.07600153894245398          0.7852892431840889 1.0000   
         C         C         1.0       0.26230756441650094           0.060679105080139184         0.7903831885316794 1.0000   
         C         C         1.0       0.2597499091118503  0.03661658619694497           0.7808633042369587 1.0000   
         C         C         1.0       0.23773848613051532           0.02740534430194641          0.7718052046116697 1.0000   
         C         C         1.0       0.3042054842561765  0.05206719618849398           0.8158172358258854 1.0000   
         C         C         1.0       0.3162344055005276  0.04751287208442845           0.8414776244701426 1.0000   
         C         C         1.0       0.34146408430316344           0.04517327789778358          0.8426078518974957 1.0000   
         C         C         1.0       0.3540836675214266  0.044167217419152305         0.8176324545138034 1.0000   
         C         C         1.0       0.3415478038290616  0.043035314073466946         0.7928196561902533 1.0000   
         C         C         1.0       0.3173999662647879  0.046031235622113975         0.7924295916456798 1.0000   
         C         C         1.0       0.2984650694600504  0.09825443865360302           0.7703805286155581 1.0000   
         C         C         1.0       0.3087683775592017  0.11946269987439743           0.7608955251984754 1.0000   
         C         C         1.0       0.31845685219720177           0.13574523097220592          0.7799103584943178 1.0000   
         C         C         1.0       0.3194211864796699  0.13064880265265294           0.8078991426602294 1.0000   
         C         C         1.0       0.309708947084666   0.10882387815635422           0.8181773140142574 1.0000   
         C         C         1.0       0.29701688477711125           0.0934651228278561 0.8000511333531881 1.0000   
         H         H         1.0       0.14992917087387297           0.06999500362896956          0.8706745732149799 1.0000   
         H         H         1.0       0.21033463105158592           0.045996015439897286         0.9191785844158725 1.0000   
         H         H         1.0       0.1886357119025909  0.007883265150478103         0.928428189582297  1.0000   
         H         H         1.0       0.12692332854215688           0.03268662325935745          0.8846252183174317 1.0000   
         H         H         1.0       0.23284077446626858           0.09202929564486073          0.9278037726236092 1.0000   
         H         H         1.0       0.23036929926082247           0.11889302291387116          0.9681131960229644 1.0000   
         H         H         1.0       0.15565358136419402           0.12968475226975057          0.951512623003455  1.0000   
         H         H         1.0       0.16061923830430266           0.10307860320360478          0.907380277881505  1.0000   
         H         H         1.0       0.22213735476157317           0.04051185507117516          0.8688215246869212 1.0000   
         H         H         1.0       0.25653313774961944           0.034504533724331266         0.8436965448101545 1.0000   
         H         H         1.0       0.2688298138717261  0.11208855966429118           0.8430415899562963 1.0000   
         H         H         1.0       0.2362704607517449  0.11664745172726376           0.8776791408286762 1.0000   
         H         H         1.0       0.20474725069750657           0.07822254660968464          0.7783095729637807 1.0000   
         H         H         1.0       0.24178829582072892           0.09391497112138092          0.7943339760151069 1.0000   
         H         H         1.0       0.2730127919706636  0.023443677394775264         0.7834307965772855 1.0000   
         H         H         1.0       0.23606877817440852           0.007920963056617047         0.7675998700217319 1.0000   
         H         H         1.0       0.3082591350104513  0.04913075162189995           0.8616863480496713 1.0000   
         H         H         1.0       0.3507503386159817  0.044478957620143644         0.8621390576332417 1.0000   
         H         H         1.0       0.35146899073821586           0.04002380226177893          0.7733113501711497 1.0000   
         H         H         1.0       0.3107414740914958  0.04808782346156426           0.7715411651399365 1.0000   
         H         H         1.0       0.290071759665062   0.08719026893364758           0.7552018202486677 1.0000   
         H         H         1.0       0.31050294564961145           0.1219422124415906 0.7385950930693831 1.0000   
         H         H         1.0       0.32502182465817303           0.14279939466050837          0.824525844912778  1.0000   
         H         H         1.0       0.31079668986239317           0.10785732363967557          0.8411476993432035 1.0000   
         C         C         1.0       0.01881160044595087           0.9720582492993433 0.8089367503260597 1.0000   
         C         C         1.0       0.015152263213900063          0.9970548450661407 0.8049648506982715 1.0000   
         C         C         1.0       0.03385137969086904           0.011650739940075816         0.7973545984126859 1.0000   
         C         C         1.0       0.05688714627773428           0.0029406516399641536        0.7920868325458498 1.0000   
         C         C         1.0       0.06101124650735423           0.978881908117979  0.8007104178575628 1.0000   
         C         C         1.0       0.04201901408689657           0.9635386394374326 0.8070682081603164 1.0000   
         H         H         1.0       0.9970441415496581  0.0049887817392659795        0.8060483264129341 1.0000   
         H         H         1.0       0.029720859417461165          0.030362700969019718         0.7949819352250111 1.0000   
         H         H         1.0       0.07756669605656742           0.9691571605197369 0.7978791716037036 1.0000   
         H         H         1.0       0.045390337549654936          0.9450534619320914 0.8094124785045477 1.0000   
         C         C         1.0       0.11610818573942153           0.011283455223797256         0.802277670161726  1.0000   
         C         C         1.0       0.10333106086366696           0.01196335833637674          0.7762755624959664 1.0000   
         C         C         1.0       0.11927937762072495           0.010158016524320024         0.7536382728285721 1.0000   
         C         C         1.0       0.14490591489875745           0.009834023896208688         0.7557769223241793 1.0000   
         C         C         1.0       0.15488852319331514           0.013429574272823652         0.7815260454331672 1.0000   
         C         C         1.0       0.14022207904749365           0.012391482928988173         0.805165745556519  1.0000   
         C         C         1.0       0.07537118986481485           0.01605422801186629          0.7728981291197472 1.0000   
         C         C         1.0       0.0770611878591887  0.04475398079177517           0.7731170819694272 1.0000   
         C         C         1.0       0.08234559618972659           0.05823746467051749          0.7498123223769146 1.0000   
         C         C         1.0       0.08681412848519487           0.08256918964082738          0.7505684177115989 1.0000   
         C         C         1.0       0.08623923526756028           0.09450779063799142          0.7759069466651829 1.0000   
         C         C         1.0       0.08154073778720994           0.08272570473972207          0.800866581461984  1.0000   
         C         C         1.0       0.0770947685142791  0.05772660939993113           0.7993247326693558 1.0000   
         C         C         1.0       0.07489413829389768           0.9808596415552401 0.7345444376250431 1.0000   
         C         C         1.0       0.07495708434116866           0.9746833579577011 0.7058686914383602 1.0000   
         C         C         1.0       0.06079093335238439           0.9873035318138614 0.6880138458310793 1.0000   
         C         C         1.0       0.045305302861049945          0.004359523686449762         0.6995181239310931 1.0000   
         C         C         1.0       0.04894830870494982           0.01321764598269759          0.7268309828225823 1.0000   
         C         C         1.0       0.06612794626617591           0.0029565524682910738        0.7439055910793142 1.0000   
         C         C         1.0       0.0681901776056062  0.9887917818722446  0.6558638114147052 1.0000   
         C         C         1.0       0.12144427784156678           0.04609044635057313          0.6706353790891644 1.0000   
         C         C         1.0       0.12740462864539046           0.022230572585961506         0.670974600577263  1.0000   
         C         C         1.0       0.11060364174631614           0.004799882299627134         0.6657684727090253 1.0000   
         C         C         1.0       0.0866738732833301  0.009854963828329177         0.6597426923986396 1.0000   
         C         C         1.0       0.08084796243678531           0.034656563461693324         0.6595461348978064 1.0000   
         C         C         1.0       0.09761911554639136           0.05182103047638509          0.6674683649840372 1.0000   
         C         C         1.0       0.04545506887559214           0.9928111127238536 0.6362424453471557 1.0000   
         C         C         1.0       0.025088557714539883          0.9788594058674053 0.6394008873856601 1.0000   
         C         C         1.0       0.006920167296697866          0.9797096628514556 0.6191825755744795 1.0000   
         C         C         1.0       0.008339211983453332          0.9953065470610661 0.596645772955544  1.0000   
         C         C         1.0       0.029205895820303196          0.009846432347493828         0.5940626421748416 1.0000   
         C         C         1.0       0.04808984787704995           0.007463259825298829         0.6120532788337336 1.0000   
         C         C         1.0       0.09264721556637376           0.964978900132307  0.6181120566439778 1.0000   
         C         C         1.0       0.10039583099109373           0.9441243052389724 0.6035250035213232 1.0000   
         C         C         1.0       0.09401454646075529           0.9223229847517951 0.6139027701792661 1.0000   
         C         C         1.0       0.07991980709800785           0.9208070203686843 0.6381222015994602 1.0000   
         C         C         1.0       0.07132758987823884           0.9420939761439049 0.6503405788113599 1.0000   
         C         C         1.0       0.07864818967876447           0.9646531019673972 0.6420358652856161 1.0000   
         H         H         1.0       0.10707862910717605           0.0092857157637809 0.8224282791178205 1.0000   
         H         H         1.0       0.1128036963814817  0.01116757226181897           0.7311299764169485 1.0000   
         H         H         1.0       0.1559845523984228  0.007111479035915247         0.7384275763022446 1.0000   
         H         H         1.0       0.14832991243382326           0.016115693875071724         0.8259321191880182 1.0000   
         H         H         1.0       0.08318764800274175           0.049863071548898796         0.7281397428535219 1.0000   
         H         H         1.0       0.09143661265152092           0.0899483096781648 0.7295732386259955 1.0000   
         H         H         1.0       0.07917069507230745           0.09007209189509258          0.8221155620096249 1.0000   
         H         H         1.0       0.07491061389548515           0.0489892765567983 0.8187956108719855 1.0000   
         H         H         1.0       0.08749067160430239           0.9725303579440338 0.7484500170281962 1.0000   
         H         H         1.0       0.08819471297860383           0.9614014280526003 0.7011503658630415 1.0000   
         H         H         1.0       0.03063698001513293           0.012336144333986665         0.6884318611921563 1.0000   
         H         H         1.0       0.040016024062874855          0.029207409987463517         0.7338377976779892 1.0000   
         H         H         1.0       0.14436066026790442           0.01779460700795532          0.67594851505675   1.0000   
         H         H         1.0       0.11805525100626119           0.9870227153710918 0.6658007426019495 1.0000   
         H         H         1.0       0.06239812842060188           0.04081359514985494          0.6580316218402229 1.0000   
         H         H         1.0       0.09306130167944628           0.06976136944488198          0.6684603694631144 1.0000   
         H         H         1.0       0.021085650291170488          0.9684268346017654 0.6581435148419078 1.0000   
         H         H         1.0       0.9918529798544489  0.9673573095258092  0.6195924553146576 1.0000   
         H         H         1.0       0.030913820188644303          0.021877488944959778         0.577246154335265  1.0000   
         H         H         1.0       0.0652075875854563  0.01695089475222722           0.6070695140091935 1.0000   
         H         H         1.0       0.10163586780597177           0.9821740157016708 0.6126817414775939 1.0000   
         H         H         1.0       0.11287866330173116           0.9455019079725819 0.5855214256507025 1.0000   
         H         H         1.0       0.0733443380084713  0.9040553438472388  0.6472259295618529 1.0000   
         H         H         1.0       0.05650854037056941           0.9384286759965147 0.6662580047961674 1.0000   
         C         C         1.0       0.018077720999908342          0.9712778266289054 0.06095005581000268          1.0000   
         C         C         1.0       0.022401615889483528          0.9890859723374987 0.04144730042242806          1.0000   
         C         C         1.0       0.04331601795091977           0.990210887242295  0.026336163509633748         1.0000   
         C         C         1.0       0.060646496089910906          0.9728477420706405 0.030207931534762977         1.0000   
         C         C         1.0       0.05494236418139575           0.9539856926778318 0.04669613555957519          1.0000   
         C         C         1.0       0.0341386422939578  0.9534531822429633  0.06275900091316977          1.0000   
         H         H         1.0       0.01036253163087908           0.004015336068600828         0.0430001688423145 1.0000   
         H         H         1.0       0.04785605654811387           0.00460408985058014          0.011028509629474659         1.0000   
         H         H         1.0       0.06645568775649058           0.9402006154854538 0.05272855114414199          1.0000   
         H         H         1.0       0.03322516624852967           0.9566533206430399 0.5566824994988676 1.0000   
         C         C         1.0       0.09802632710163532           0.018668978321033425         0.5531216149709721 1.0000   
         C         C         1.0       0.10814925988577505           0.9667785002923143 0.03509359132149692          1.0000   
         C         C         1.0       0.12905337487514304           0.9588957846781891 0.021387255331947408         1.0000   
         C         C         1.0       0.14715608182027665           0.9492187354478204 0.03690624284256061          1.0000   
         C         C         1.0       0.13999818031752773           0.02189027746462946          0.5628337504952405 1.0000   
         C         C         1.0       0.116160952319597   0.020745953171254383         0.5722949958219521 1.0000   
         C         C         1.0       0.0863951800865528  0.9753522174441707  0.015512641737411403         1.0000   
         C         C         1.0       0.09514312034828082           0.0017049228006622563        0.010368537668985489         1.0000   
         C         C         1.0       0.10640992520126757           0.007566841811648128         0.9836638519785111 1.0000   
         C         C         1.0       0.11366854703265039           0.03110275796621287          0.9771159342653537 1.0000   
         C         C         1.0       0.10817050511251103           0.04900438610402902          0.996536256328447  1.0000   
         C         C         1.0       0.10103442395330253           0.04322959152368755          0.02317485123522256          1.0000   
         C         C         1.0       0.09325801723751659           0.019932782151887984         0.03027887529581652          1.0000   
         C         C         1.0       0.08324969919614703           0.9358920125881905 0.986912421018859  1.0000   
         C         C         1.0       0.07900646028962857           0.9227091951614396 0.9628290629600152 1.0000   
         C         C         1.0       0.06556332125364639           0.9318658775897588 0.9408301396523198 1.0000   
         C         C         1.0       0.05877003736666709           0.9562058708127829 0.9420820275450126 1.0000   
         C         C         1.0       0.0669736172226274  0.9700080865484217  0.9643976143036994 1.0000   
         C         C         1.0       0.07877148076560844           0.9599379361599873 0.988088036402312  1.0000   
         C         C         1.0       0.06311070239042449           0.9165377767294908 0.9111338015205325 1.0000   
         C         C         1.0       0.1270029882328627  0.9568706358788867  0.8844003343265665 1.0000   
         C         C         1.0       0.12882459852459055           0.9363870386081886 0.8997189490807495 1.0000   
         C         C         1.0       0.1096433713678422  0.9219170951097447  0.9044107818438001 1.0000   
         C         C         1.0       0.08603183810844496           0.9275692507775405 0.8970194499588896 1.0000   
         C         C         1.0       0.0843758402406448  0.9473958986439727  0.8797080967881696 1.0000   
         C         C         1.0       0.10438046263861742           0.961947634939863  0.874231154881554  1.0000   
         C         C         1.0       0.03838911130850642           0.9168602115807908 0.8955827844565433 1.0000   
         C         C         1.0       0.019624018998041004          0.9302565336861037 0.9047406621100885 1.0000   
         C         C         1.0       0.0028071147603008217         0.9383069860575941 0.8850492737361974 1.0000   
         C         C         1.0       0.0038557478474288143         0.931112308014202  0.8569580961252152 1.0000   
         C         C         1.0       0.020800897549983596          0.9146636789727207 0.8486444137744038 1.0000   
         C         C         1.0       0.04000316510677693           0.9094790072455762 0.8666716876508282 1.0000   
         C         C         1.0       0.07807182900379298           0.8711764855522062 0.9018650529983082 1.0000   
         C         C         1.0       0.07802341571063282           0.847794752320423  0.9099221945920515 1.0000   
         C         C         1.0       0.06166030798097655           0.839322169529264  0.9294915825088476 1.0000   
         C         C         1.0       0.04447910083942719           0.8548692414870744 0.9410530154909954 1.0000   
         C         C         1.0       0.047055266973164755          0.8784893489206851 0.9359771716160863 1.0000   
         C         C         1.0       0.06373992807254968           0.8878143831784276 0.9169426718941655 1.0000   
         H         H         1.0       0.08092612638690784           0.017393073561521755         0.5631779070871361 1.0000   
         H         H         1.0       0.13280308386062165           0.9587772706152978 0.9994044183553643 1.0000   
         H         H         1.0       0.16335794369417583           0.9446777083067569 0.026513850793132843         1.0000   
         H         H         1.0       0.11331662213091843           0.021959746023513915         0.5944193402404195 1.0000   
         H         H         1.0       0.10975523363014261           0.9948070372914092 0.9658795833807458 1.0000   
         H         H         1.0       0.11986230968869183           0.036373281580662775         0.9549972320019128 1.0000   
         H         H         1.0       0.055009282773347046          0.09218775576801108          0.49710868253427504          1.0000   
         H         H         1.0       0.0690052463366142  0.056616550880951744         0.5223674638108413 1.0000   
         H         H         1.0       0.08626726342803714           0.9243686167176203 0.0061906661574435695        1.0000   
         H         H         1.0       0.0861668946484103  0.9039369226238424  0.9620799379121721 1.0000   
         H         H         1.0       0.04973773328016273           0.9644184200322752 0.9248175494812241 1.0000   
         H         H         1.0       0.06319395023118446           0.9884614691974022 0.963855392984516  1.0000   
         H         H         1.0       0.14668443343331844           0.9299098158573488 0.906940577350155  1.0000   
         H         H         1.0       0.11498561397757744           0.9047856701455455 0.9135897127488171 1.0000   
         H         H         1.0       0.06852611811298948           0.9545387748684758 0.8738498895820931 1.0000   
         H         H         1.0       0.09966469690560309           0.9785821496462886 0.8638635767051406 1.0000   
         H         H         1.0       0.016698746428930322          0.9335351917508615 0.9263863312952477 1.0000   
         H         H         1.0       0.9892277607183433  0.9517201811941436  0.8920303683806164 1.0000   
         H         H         1.0       0.023942598525365618          0.9110555284104052 0.8249540362222261 1.0000   
         H         H         1.0       0.053905375281032564          0.8993346244271547 0.8575010533174657 1.0000   
         H         H         1.0       0.08843261429743791           0.8775326256054835 0.8844972310969763 1.0000   
         H         H         1.0       0.09099089120168286           0.8363973311641623 0.8993742854003484 1.0000   
         H         H         1.0       0.030017917545179133          0.8485739320419509 0.9540040630204796 1.0000   
         H         H         1.0       0.03344759445235001           0.8906761102977226 0.945530438899163  1.0000   
         C         C         1.0       0.136262936274613   0.23082883035492885           0.7062471907923651 1.0000   
         C         C         1.0       0.1457063454784379  0.23935237468873122           0.6818964696048581 1.0000   
         C         C         1.0       0.13742642343807945           0.23018222743279868          0.6557236731340197 1.0000   
         C         C         1.0       0.1205877800218683  0.21175666679231675           0.6544607969571945 1.0000   
         C         C         1.0       0.1140866081078498  0.2014541268371224  0.6800020086372099 1.0000   
         C         C         1.0       0.12110184988626885           0.21095629251957426          0.7055738010130114 1.0000   
         H         H         1.0       0.15720726828898915           0.25511796947971477          0.6812614994996359 1.0000   
         H         H         1.0       0.14318539912284534           0.23740899467286852          0.6364381775720376 1.0000   
         H         H         1.0       0.09894379172314792           0.18990290148451833          0.6796342526991888 1.0000   
         H         H         1.0       0.11427422755054328           0.20730788522813406          0.7268735819083704 1.0000   
         C         C         1.0       0.09684722380178434           0.15959898402341496          0.6305757254036455 1.0000   
         C         C         1.0       0.08862229142010336           0.18259976280612147          0.6231338012208499 1.0000   
         C         C         1.0       0.06716180375623693           0.18437145557224077          0.6090641083843156 1.0000   
         C         C         1.0       0.05580623836125631           0.16419302251993256          0.5981027343721781 1.0000   
         C         C         1.0       0.06491213816828534           0.1420566057390146 0.6047422574292386 1.0000   
         C         C         1.0       0.0849184594029031  0.13923884397510294           0.6206629226035046 1.0000   
         C         C         1.0       0.10687314147687511           0.2064477200041752 0.624521968769802  1.0000   
         C         C         1.0       0.12403735227282178           0.19983569524770897          0.5982327233905267 1.0000   
         C         C         1.0       0.11650183332073065           0.2045114149719173 0.5707322177456443 1.0000   
         C         C         1.0       0.17029992627371768           0.223701531465845  0.03240274798102272          1.0000   
         C         C         1.0       0.19241983368437113           0.2131052635220053 0.0257451490180185 1.0000   
         C         C         1.0       0.20098142969587585           0.19607657303412412          0.04378391864074427          1.0000   
         C         C         1.0       0.1877018893898679  0.18726887408677842           0.06544749371976111          1.0000   
         C         C         1.0       0.07315883784902466           0.23324974500296738          0.644033486808366  1.0000   
         C         C         1.0       0.06257080073949206           0.2552988218056129 0.6494697714595999 1.0000   
         C         C         1.0       0.06717992510358628           0.2744361593904439 0.6323832878536538 1.0000   
         C         C         1.0       0.0852017789082984  0.27225337934076765           0.61169149419998   1.0000   
         C         C         1.0       0.09772091055821133           0.2512122710850025 0.6077452998409438 1.0000   
         C         C         1.0       0.09238277702431591           0.2309671526973901 0.6250465320530534 1.0000   
         C         C         1.0       0.052744964804692485          0.29926454127535856          0.6401627199792408 1.0000   
         C         C         1.0       0.9951914679524448  0.2507823936898196  0.6199321717319749 1.0000   
         C         C         1.0       0.9966945695470661  0.26112222393354617           0.6474109518733124 1.0000   
         C         C         1.0       0.010007656786685581          0.2808566210671022 0.6528933464983492 1.0000   
         C         C         1.0       0.025240145630331945          0.2900331516997077 0.6325590803439122 1.0000   
         C         C         1.0       0.02143933601881165           0.2829894732581904 0.6040143824229843 1.0000   
         C         C         1.0       0.007198021066279425          0.26235541660056616          0.5992735404937456 1.0000   
         C         C         1.0       0.060201629565856285          0.3239804057539093 0.6249337030487021 1.0000   
         C         C         1.0       0.08439369188175228           0.33274345364668906          0.6243069776640705 1.0000   
         C         C         1.0       0.08946930031817013           0.35770437111770065          0.6257995457120177 1.0000   
         C         C         1.0       0.07112604812686762           0.37342474333603426          0.6291723655187825 1.0000   
         C         C         1.0       0.04807680112984092           0.3651309409879397 0.6250095936153818 1.0000   
         C         C         1.0       0.04312165301728421           0.3412343774831183 0.6217462108490605 1.0000   
         C         C         1.0       0.04238025314285743           0.321818126404338  0.6897777940902519 1.0000   
         C         C         1.0       0.0500218199648117  0.3321701364611909  0.7156422027729095 1.0000   
         C         C         1.0       0.07284452400895346           0.3274549923337156 0.7261689106189907 1.0000   
         C         C         1.0       0.08830005908052188           0.3124048146371429 0.7094589492379704 1.0000   
         C         C         1.0       0.07960503581055645           0.3029646489548963 0.6847068825817151 1.0000   
         C         C         1.0       0.05790570385001615           0.30736033619749   0.6731284103681692 1.0000   
         H         H         1.0       0.11428119280552049           0.15720419631263194          0.6422281379272768 1.0000   
         H         H         1.0       0.06040084180446592           0.20143849923980145          0.6015334225021685 1.0000   
         H         H         1.0       0.08335722434720916           0.15662787924123625          0.046977424257424794         1.0000   
         H         H         1.0       0.0926510715787705  0.12070207814194102           0.6243663062000182 1.0000   
         H         H         1.0       0.10166553800740577           0.21592131971254933          0.5689845711419285 1.0000   
         H         H         1.0       0.16412231980529363           0.2392026318622552 0.020030017638284825         1.0000   
         H         H         1.0       0.2170673455878376  0.18772060164891208           0.0384832717651844 1.0000   
         H         H         1.0       0.1486486132526036  0.17940974094869552           0.6229338352915693 1.0000   
         H         H         1.0       0.06779075372769827           0.2192641933375156 0.6583327301041976 1.0000   
         H         H         1.0       0.04843375473030154           0.2562108719891736 0.6646280687518359 1.0000   
         H         H         1.0       0.09106157888172381           0.2870735784111926 0.6000985933522963 1.0000   
         H         H         1.0       0.11311115902953237           0.25001975298767254          0.5948829815771205 1.0000   
         H         H         1.0       0.9853749999035171  0.2532625319390974  0.6630244733636679 1.0000   
         H         H         1.0       0.012634390473334145          0.2864954400707894 0.6749278307455802 1.0000   
         H         H         1.0       0.032640917869325436          0.2892462279552244 0.58728984218479   1.0000   
         H         H         1.0       0.005844593167976919          0.25477644495996465          0.5785134035897349 1.0000   
         H         H         1.0       0.09925104702059095           0.3194351625456488 0.62521533228337   1.0000   
         H         H         1.0       0.10653005944367466           0.3647738117232042 0.6262609245700927 1.0000   
         H         H         1.0       0.03357085087374112           0.37845589721669937          0.6256433898208265 1.0000   
         H         H         1.0       0.023040196458390172          0.33840635700784744          0.6169167733814108 1.0000   
         H         H         1.0       0.02511794928938094           0.3281875469054129 0.6824793275717757 1.0000   
         H         H         1.0       0.03893511945138516           0.343651618954904  0.7294668106884293 1.0000   
         H         H         1.0       0.1051084957356064  0.3075609022104716  0.7190525468063022 1.0000   
         H         H         1.0       0.09248978454719436           0.29157742437027356          0.6732977804824756 1.0000   
         C         C         1.0       0.10850472147051658           0.17860413733694877          0.8286464075003424 1.0000   
         C         C         1.0       0.11938046845711238           0.2016135986983696 0.8260123511012618 1.0000   
         C         C         1.0       0.10537267287613046           0.22178038396309824          0.8281305793120121 1.0000   
         C         C         1.0       0.08042312047859305           0.2213562396175017 0.8297656448475471 1.0000   
         C         C         1.0       0.06946499604124168           0.1989445269917541 0.8297712027803053 1.0000   
         C         C         1.0       0.08372290118937067           0.17807156520571785          0.8311254778690265 1.0000   
         H         H         1.0       0.13863517862760658           0.20437835257043308          0.8243141985076116 1.0000   
         H         H         1.0       0.11547128158238831           0.23879650740723732          0.8287972098240592 1.0000   
         H         H         1.0       0.05040636640457175           0.19698261387842628          0.8293010940249761 1.0000   
         H         H         1.0       0.07621160201524123           0.1615084845321745 0.8333735839469678 1.0000   
         C         C         1.0       0.026653941908606035          0.23848458405265505          0.8146875649578671 1.0000   
         C         C         1.0       0.03705510248519639           0.24268064702420572          0.840299408298102  1.0000   
         C         C         1.0       0.022378138810164705          0.25033406998368535          0.8625252181006294 1.0000   
         C         C         1.0       0.9985948048218305  0.2561456757227667  0.858803278147357  1.0000   
         C         C         1.0       0.9892418825526731  0.2545197372776512  0.8309219320311017 1.0000   
         C         C         1.0       0.004100615632525173          0.24583573976263653          0.8092279791456792 1.0000   
         C         C         1.0       0.06663501293947394           0.24507109229939353          0.841748222875953  1.0000   
         C         C         1.0       0.07240607618909257           0.2692014471501704 0.8258477038277756 1.0000   
         C         C         1.0       0.06497152900298286           0.2909022343660453 0.8377270548742111 1.0000   
         C         C         1.0       0.06574040354465605           0.31209099599651957          0.8228100659007596 1.0000   
         C         C         1.0       0.07505751293699416           0.312625073141517  0.7963339259851437 1.0000   
         C         C         1.0       0.08213569797718558           0.29088866095989235          0.7831297454046804 1.0000   
         C         C         1.0       0.07899788860388603           0.269005517569196  0.797105751650703  1.0000   
         C         C         1.0       0.06948577998514405           0.2270103792498757 0.891756324049564  1.0000   
         C         C         1.0       0.0776911251922485  0.22654359930933535           0.9184754498819807 1.0000   
         C         C         1.0       0.09179334687512315           0.24533656074074434          0.9303118577151281 1.0000   
         C         C         1.0       0.09868493641767877           0.26312633518270867          0.9121248984101021 1.0000   
         C         C         1.0       0.09442828222762134           0.2619264027548714 0.8833488222123304 1.0000   
         C         C         1.0       0.07726434673921423           0.24552914545094384          0.8734292338738835 1.0000   
         C         C         1.0       0.09802682818656955           0.24822431130953101          0.9617632880731383 1.0000   
         C         C         1.0       0.04696508582357639           0.21749740709485577          0.019986169219233796         1.0000   
         C         C         1.0       0.0708033414211342  0.21401131379492563           0.02474082426479396          1.0000   
         C         C         1.0       0.08801228527704685           0.2225415833438183 0.006226647900890114         1.0000   
         C         C         1.0       0.07957889095588389           0.23553555765311576          0.9827980543454959 1.0000   
         C         C         1.0       0.05512055306343733           0.23859236990213503          0.9779171783395264 1.0000   
         C         C         1.0       0.03947443952012719           0.2302394872766135 0.997805082690825  1.0000   
         C         C         1.0       0.0989576308337703  0.2747012064713764  0.9769058445595495 1.0000   
         C         C         1.0       0.08177937725658335           0.29119473804344076          0.9679513221155728 1.0000   
         C         C         1.0       0.08042819478810093           0.313355629311938  0.9799654295335535 1.0000   
         C         C         1.0       0.09502860395468371           0.32028421025460424          0.002118894262504556         1.0000   
         C         C         1.0       0.11167385428014387           0.30409176033983465          0.012744839331053637         1.0000   
         C         C         1.0       0.11270193119845229           0.2807225139897275 0.0013354546247672516        1.0000   
         C         C         1.0       0.14612190611214843           0.2542337348935434 0.9560819729778002 1.0000   
         C         C         1.0       0.16897143578709065           0.2453857303016385 0.9579490719280993 1.0000   
         C         C         1.0       0.17250940928130862           0.22106412086033045          0.9631398217990145 1.0000   
         C         C         1.0       0.15313575970249238           0.20554001960807647          0.9645275811826292 1.0000   
         C         C         1.0       0.13039043345386944           0.21417915016010572          0.9611832066514608 1.0000   
         C         C         1.0       0.12543825572621073           0.23882331793128145          0.9595141468563552 1.0000   
         H         H         1.0       0.03797748878819119           0.23269487231558536          0.7974980096938061 1.0000   
         H         H         1.0       0.030637146528128545          0.25287820389561816          0.8826393105874594 1.0000   
         H         H         1.0       0.988708122082487   0.2651534275079849  0.8770040620068361 1.0000   
         H         H         1.0       0.9960631192627022  0.24239248776756325           0.7883226670122014 1.0000   
         H         H         1.0       0.05799248213422104           0.29281543942495336          0.8592424672468554 1.0000   
         H         H         1.0       0.05725311807940181           0.32781685683344935          0.8327805467159152 1.0000   
         H         H         1.0       0.08700015745296627           0.29169296995740335          0.7602055867183609 1.0000   
         H         H         1.0       0.0848004918689051  0.25233691450790613           0.7868147330744634 1.0000   
         H         H         1.0       0.05692713016313534           0.2116641472575516 0.8844592675761083 1.0000   
         H         H         1.0       0.07392986869314556           0.21033615279073134          0.9300059543596341 1.0000   
         H         H         1.0       0.11127419259529688           0.2770504653681593 0.919652980259022  1.0000   
         H         H         1.0       0.1055958772558593  0.2714114768503376  0.8675266861317976 1.0000   
         H         H         1.0       0.07727237736175785           0.2064955797222979 0.04380844770080938          1.0000   
         H         H         1.0       0.1079225524998737  0.22150904376373756           0.00825188751491801          1.0000   
         H         H         1.0       0.04853669519578441           0.2478337996606088 0.9589686912204326 1.0000   
         H         H         1.0       0.020476701015033738          0.23167381741151719          0.9929786151754112 1.0000   
         H         H         1.0       0.06755625605145488           0.2870515881079876 0.9521242144297336 1.0000   
         H         H         1.0       0.06542742372189414           0.32388766742186365          0.9720222146246078 1.0000   
         H         H         1.0       0.12361778327706663           0.3099269787195347 0.030199218811218342         1.0000   
         H         H         1.0       0.1207033327269813  0.26672485513817457           0.012144029837719783         1.0000   
         H         H         1.0       0.1422841792975058  0.2727481921572171  0.9491865615044752 1.0000   
         H         H         1.0       0.1837769158199886  0.2582727030126026  0.9576277304099705 1.0000   
         H         H         1.0       0.15486895678613813           0.18722459640469122          0.9684248106947231 1.0000   
         H         H         1.0       0.11525673381997928           0.20182906257466826          0.9600042210041588 1.0000   
         C         C         1.0       0.9745739852359899  0.06604378574259523           0.7064186227231924 1.0000   
         C         C         1.0       0.9946967879622156  0.07058440968773858           0.7209884935918449 1.0000   
         C         C         1.0       0.005103609129597508          0.09345933280776168          0.720406106461896  1.0000   
         C         C         1.0       0.9933967215348181  0.11315596358547035           0.7095457668843786 1.0000   
         C         C         1.0       0.9727335769689278  0.10772079029417013           0.694498222942759  1.0000   
         C         C         1.0       0.9635678431103978  0.08488447644077844           0.6944914023910443 1.0000   
         H         H         1.0       0.0014688600338288449         0.05751322450433194          0.7353582707630608 1.0000   
         H         H         1.0       0.020513227259354228          0.09642610129379069          0.7336242325225052 1.0000   
         H         H         1.0       0.9628921320612795  0.12284235746933601           0.6860469694122223 1.0000   
         H         H         1.0       0.9464381608504633  0.08368346774345617           0.6833547620832978 1.0000   
         C         C         1.0       0.0008826063758176073         0.14778055105137028          0.6589080255768431 1.0000   
         C         C         1.0       0.0004107322103350519         0.15745029955958764          0.686216397475411  1.0000   
         C         C         1.0       0.00040523241850909386        0.18202652141298878          0.6884482537237204 1.0000   
         C         C         1.0       0.00018178703634319504        0.1959891927327394 0.6645359442483059 1.0000   
         C         C         1.0       0.001520660370771365          0.186263201287101  0.6380042071807323 1.0000   
         C         C         1.0       0.0014937771304557312         0.16146690672814198          0.6345052739975076 1.0000   
         C         C         1.0       0.00028923805762159915        0.141000742026761  0.7144753598714092 1.0000   
         C         C         1.0       0.028351705119924686          0.1452915156991459 0.7225685296358603 1.0000   
         C         C         1.0       0.03471246287904073           0.16032219147551405          0.7459427871241351 1.0000   
         C         C         1.0       0.05739618887121711           0.15936589108570284          0.7561560698450079 1.0000   
         C         C         1.0       0.07421928943645129           0.14643753667352583          0.7414210465492596 1.0000   
         C         C         1.0       0.06875158782360113           0.1334495696141125 0.7169868806585633 1.0000   
         C         C         1.0       0.04617358412388639           0.13364767437983455          0.7065189306747764 1.0000   
         C         C         1.0       0.9609051843887367  0.15669814377718935           0.731016662483665  1.0000   
         C         C         1.0       0.9408758222828202  0.15693548801765958           0.7479656151482813 1.0000   
         C         C         1.0       0.9418672402782716  0.14757151462283388           0.775204959967153  1.0000   
         C         C         1.0       0.9645898216896601  0.13936387256545124           0.7836716184799075 1.0000   
         C         C         1.0       0.9841360457782726  0.13912091457076478           0.7665688134209436 1.0000   
         C         C         1.0       0.9822621214900692  0.14743986013976107           0.7397356409489854 1.0000   
         C         C         1.0       0.9209581336854887  0.15059766071714342           0.7983457397839582 1.0000   
         C         C         1.0       0.9419894191501277  0.22350372128153217           0.8265642601085307 1.0000   
         C         C         1.0       0.9271834989655875  0.220652117980288   0.8040263252543234 1.0000   
         C         C         1.0       0.9192330168786875  0.19728678737534025           0.7969070067826297 1.0000   
         C         C         1.0       0.9272830523780852  0.17712047670959302           0.8104647619463835 1.0000   
         C         C         1.0       0.9437252126031606  0.1811247213707099  0.8313380565661909 1.0000   
         C         C         1.0       0.9502118440912832  0.20437676499884724           0.8404978037355046 1.0000   
         C         C         1.0       0.9186540119276451  0.13030607079268783           0.8232103405274195 1.0000   
         C         C         1.0       0.9277162114299277  0.10756883786901339           0.8180397696177686 1.0000   
         C         C         1.0       0.924058593472969   0.08897246778627017           0.8365043408680072 1.0000   
         C         C         1.0       0.9147509577676907  0.09455539802410048           0.8629775218780861 1.0000   
         C         C         1.0       0.9035439327850222  0.11635919303967403           0.8680504548867573 1.0000   
         C         C         1.0       0.9056953746271313  0.13316667990465664           0.8485163587570104 1.0000   
         C         C         1.0       0.8743635378850911  0.15990560430813835           0.7896749763050681 1.0000   
         C         C         1.0       0.8530492684212193  0.1581979835634825  0.7755105699796054 1.0000   
         C         C         1.0       0.8505339645519036  0.1412328742912341  0.7535071301666728 1.0000   
         C         C         1.0       0.8694397841512919  0.12617710649651204           0.7482051830751439 1.0000   
         C         C         1.0       0.8903950271123277  0.12824256187303937           0.7625658223971065 1.0000   
         C         C         1.0       0.8949250484984868  0.14596521446527233           0.7831839725002132 1.0000   
         H         H         1.0       0.0049972912358176025         0.1290450603097672 0.6575075958065785 1.0000   
         H         H         1.0       0.0012276281185807925         0.18973237527357198          0.7100728769414705 1.0000   
         H         H         1.0       0.0031709717414913907         0.21492525582828742          0.6682876738479165 1.0000   
         H         H         1.0       0.9983810024951766  0.15131946928183165           0.614425400067067  1.0000   
         H         H         1.0       0.022952224093859996          0.17118484453952365          0.7590098696280196 1.0000   
         H         H         1.0       0.06198027908027459           0.1678563219749548 0.7765992022163813 1.0000   
         H         H         1.0       0.08244027505369278           0.12152394247626817          0.7067886165431716 1.0000   
         H         H         1.0       0.043090690454590685          0.1208079356860934 0.689788307756856  1.0000   
         H         H         1.0       0.9589126320926308  0.16098495880539646           0.7098456820935488 1.0000   
         H         H         1.0       0.9256095079960337  0.16519182927235918           0.74028867014163   1.0000   
         H         H         1.0       0.9690656581508561  0.13366441235168044           0.8039950072014805 1.0000   
         H         H         1.0       0.9992747009891546  0.1306681540083239  0.7760168539234846 1.0000   
         H         H         1.0       0.9175227182138194  0.2361913674210243  0.7943501791662829 1.0000   
         H         H         1.0       0.9085883388099654  0.19289930883821083           0.7778702355640503 1.0000   
         H         H         1.0       0.9536083836412015  0.16568877534648294           0.8401710128024428 1.0000   
         H         H         1.0       0.9602186459616924  0.20487861803117746           0.8604277531757966 1.0000   
         H         H         1.0       0.9354100765987181  0.10234666558684191           0.7971379905411022 1.0000   
         H         H         1.0       0.9326173391504515  0.07052922749071804           0.8324413731500574 1.0000   
         H         H         1.0       0.89457233169275    0.12174042240149448           0.8884578435711561 1.0000   
         H         H         1.0       0.8996360502049319  0.1510201493409134  0.8533473320424962 1.0000   
         H         H         1.0       0.8749000622546274  0.17513066385619475           0.8028726790422872 1.0000   
         H         H         1.0       0.8384889074050106  0.17056353503564015           0.7828821349539435 1.0000   
         H         H         1.0       0.8692269121371022  0.11242919704734625           0.7317906094633202 1.0000   
         H         H         1.0       0.9055300652874783  0.11610886070439037           0.7570091203865709 1.0000   
         C         C         1.0       0.9301898850739925  0.08287171610072352           0.9365117419110941 1.0000   
         C         C         1.0       0.9487998864286116  0.06623480205928822           0.9398460590819032 1.0000   
         C         C         1.0       0.9667615925594574  0.07164343549963036           0.9592899028707097 1.0000   
         C         C         1.0       0.9663343834330022  0.0927247796522965  0.9760067585442991 1.0000   
         C         C         1.0       0.9479211724999669  0.10867672348458648           0.9705462723721502 1.0000   
         C         C         1.0       0.9317670640353751  0.10459350845871591           0.9499538932709303 1.0000   
         H         H         1.0       0.9463927193461553  0.047751244572697304         0.9300685076836793 1.0000   
         H         H         1.0       0.9784342679126495  0.056185004246118275         0.9619017546161384 1.0000   
         H         H         1.0       0.9456711869871866  0.1254146375771285  0.9824160722066501 1.0000   
         H         H         1.0       0.9154255248597843  0.1152683680551833  0.95063079976817   1.0000   
         C         C         1.0       0.9926337719028847  0.14452385119771552           0.9863547628479835 1.0000   
         C         C         1.0       0.9946954819319043  0.12664195702967282           0.006043119431387911         1.0000   
         C         C         1.0       0.00399181363794443           0.13311853631879908          0.03367373735717738          1.0000   
         C         C         1.0       0.007277400486743302          0.1566039892152623 0.041208658299642265         1.0000   
         C         C         1.0       0.002399911170764435          0.17483705959772158          0.023648641442193252         1.0000   
         C         C         1.0       0.996076914839543   0.16945241493793337           0.9960447588206663 1.0000   
         C         C         1.0       0.9875580382670575  0.09900644931077299           0.9975889112653856 1.0000   
         C         C         1.0       0.014173481700511914          0.09018980958578329          0.9880651884543494 1.0000   
         C         C         1.0       0.030044500452532485          0.0849324041388863 0.009461352926214861         1.0000   
         C         C         1.0       0.05373135950583152           0.07911309634636937          0.003214152359651168         1.0000   
         C         C         1.0       0.06209726605223009           0.08136770963996764          0.9761211482094044 1.0000   
         C         C         1.0       0.046332657925335585          0.08562050639075602          0.9552322382365848 1.0000   
         C         C         1.0       0.02299362758984036           0.09075631386338538          0.9607757110943799 1.0000   
         C         C         1.0       0.9588010964532202  0.09963919848406234           0.04215984716013188          1.0000   
         C         C         1.0       0.9570500374956582  0.09421484515173086           0.06982233339872335          1.0000   
         C         C         1.0       0.9688183230151904  0.0754520861330519  0.08078220725097895          1.0000   
         C         C         1.0       0.9786673341949697  0.05832956103715924           0.06163821257759716          1.0000   
         C         C         1.0       0.9823205911488068  0.0637163285084592  0.0335879510026329 1.0000   
         C         C         1.0       0.9759966368930704  0.08660752220849907           0.02547904918864141          1.0000   
         C         C         1.0       0.956243903138432   0.07832326363129886           0.5784485735984213 1.0000   
         C         C         1.0       0.024455921319650242          0.10522078951514043          0.5506811296673837 1.0000   
         C         C         1.0       0.0047205457657530925         0.12059344511660611          0.5470418348966284 1.0000   
         C         C         1.0       0.982420898068271   0.11160420924201264           0.5525687839606722 1.0000   
         C         C         1.0       0.9789984969768168  0.08841032916028348           0.560179060856289  1.0000   
         C         C         1.0       0.9977257435626086  0.07300917883037575           0.5548234256289365 1.0000   
         C         C         1.0       0.01987857535225057           0.08152625763926387          0.5488524696291232 1.0000   
         C         C         1.0       0.9651830152636294  0.05928822762899235           0.602330235048444  1.0000   
         C         C         1.0       0.9507161521217788  0.04018584266381042           0.6088226810802696 1.0000   
         C         C         1.0       0.9547166277714886  0.027223839207095587         0.6324325854491316 1.0000   
         C         C         1.0       0.9714548011722892  0.03411261363934126           0.652132199736349  1.0000   
         C         C         1.0       0.9881935309392562  0.050751446464269094         0.644598476356888  1.0000   
         C         C         1.0       0.9848996664113001  0.06531873566699453           0.6203683762073957 1.0000   
         C         C         1.0       0.9532475876814527  0.11791442264080274           0.6102349463782301 1.0000   
         C         C         1.0       0.9441193568964514  0.13114822929858766           0.6321977535471064 1.0000   
         C         C         1.0       0.9236132281602902  0.12181389584120242           0.6462678875898584 1.0000   
         C         C         1.0       0.9176094177227657  0.101066495327091   0.1506528907479472 1.0000   
         C         C         1.0       0.9317924719716376  0.09018257707020881           0.13110604037873097          1.0000   
         C         C         1.0       0.9431103336742628  0.09620678938558568           0.5992703439791985 1.0000   
         H         H         1.0       0.9880146040551462  0.1399911664769715  0.9644037349674922 1.0000   
         H         H         1.0       0.0046897029039811855         0.11949871182748244          0.04999328773332912          1.0000   
         H         H         1.0       0.012953211803062858          0.16050555887515625          0.06228320732129444          1.0000   
         H         H         1.0       0.9927781674591802  0.1836604234896937  0.9809583270261059 1.0000   
         H         H         1.0       0.025032936961978614          0.08494148206631523          0.02994790443554818          1.0000   
         H         H         1.0       0.06450873349826414           0.07575714548288337          0.02213008815582196          1.0000   
         H         H         1.0       0.05314415106280923           0.0841593778299825 0.9330563656222212 1.0000   
         H         H         1.0       0.010825075234570658          0.09528793238946179          0.9442138065629151 1.0000   
         H         H         1.0       0.9503506048385901  0.11499567482356253           0.03308050486332981          1.0000   
         H         H         1.0       0.947101424497546   0.1068219545213458  0.0828817774673345 1.0000   
         H         H         1.0       0.9878102336366075  0.042164019413214904         0.06855403725997   1.0000   
         H         H         1.0       0.9937753682599919  0.05285808299027938           0.0209734976105016 1.0000   
         H         H         1.0       0.007677385222857769          0.14120326848437942          0.5483465234056875 1.0000   
         H         H         1.0       0.9670706251686945  0.12365471859556909           0.5534369624175381 1.0000   
         H         H         1.0       0.996428346063208   0.05197649417347039           0.5597357072624035 1.0000   
         H         H         1.0       0.03508238518232476           0.07007588097289968          0.5468528920989117 1.0000   
         H         H         1.0       0.9345293474900725  0.03891384486510562           0.595129874857779  1.0000   
         H         H         1.0       0.9412510698275491  0.013363706020316668         0.6346300559487723 1.0000   
         H         H         1.0       0.0033818200325801406         0.05306309192621493          0.6565584891203673 1.0000   
         H         H         1.0       0.9979272900217708  0.07925332242077059           0.6185962037166014 1.0000   
         H         H         1.0       0.970221323527502   0.12254577107968688           0.6008752070095372 1.0000   
         H         H         1.0       0.9524753456969715  0.14951263116078153           0.639874154171599  1.0000   
         H         H         1.0       0.898315333241049   0.10219465836366305           0.14650239693831457          1.0000   
         H         H         1.0       0.9229830235133191  0.08203876154463705           0.1124026519509227 1.0000   
         C         C         1.0       0.5488739603966428  0.5823776417637625  0.6990497610195822 1.0000   
         C         C         1.0       0.5428688672171799  0.5614786997922221  0.6838022187911936 1.0000   
         C         C         1.0       0.5596152406891111  0.5477103798662668  0.6688457816590336 1.0000   
         C         C         1.0       0.5822047787605295  0.5572511985617753  0.6635908421387244 1.0000   
         C         C         1.0       0.589386591567179   0.5781459890750167  0.679151362144194  1.0000   
         C         C         1.0       0.5721827533803553  0.590540241233346   0.6954254342459327 1.0000   
         H         H         1.0       0.5249872549521455  0.555534340418329   0.684154100412541  1.0000   
         H         H         1.0       0.551870535975418   0.5332292073950822  0.6591237955450896 1.0000   
         H         H         1.0       0.6074007338253767  0.5880975717175874  0.6742017202071148 1.0000   
         H         H         1.0       0.5772571397666394  0.6079966170507016  0.7041105135579516 1.0000   
         C         C         1.0       0.6260066567218683  0.5773870987464113  0.6252874628617227 1.0000   
         C         C         1.0       0.6225465618517657  0.553017946529846   0.6323740077216811 1.0000   
         C         C         1.0       0.6421095236096225  0.5383820431258179  0.6260770197137587 1.0000   
         C         C         1.0       0.6635060441685264  0.5471848134201285  0.6165416957009792 1.0000   
         C         C         1.0       0.6672995197809982  0.571213951273405   0.6131090476642429 1.0000   
         C         C         1.0       0.7172299592038975  0.4956021603526343  0.10200694049008119          1.0000   
         C         C         1.0       0.5982664911844795  0.5405415055967578  0.6438355235804396 1.0000   
         C         C         1.0       0.5847938992325895  0.5328953212972922  0.6142315865518246 1.0000   
         C         C         1.0       0.5900058939931886  0.5118531327505921  0.6005635704773227 1.0000   
         C         C         1.0       0.6533209849709007  0.40057225647993205           0.11466010830787177          1.0000   
         C         C         1.0       0.6316742301136494  0.407127374341054   0.10283505703050233          1.0000   
         C         C         1.0       0.6269872766715432  0.43101553245400215           0.09975039223396798          1.0000   
         C         C         1.0       0.641099636995989   0.4483306515365722  0.11264152278900208          1.0000   
         C         C         1.0       0.6188232456675219  0.5276138247436474  0.6894671388304532 1.0000   
         C         C         1.0       0.6298551994190777  0.5097123960984321  0.7050262239397356 1.0000   
         C         C         1.0       0.6254015109016989  0.48497941497266306           0.6981171227331492 1.0000   
         C         C         1.0       0.608278286636573   0.4794586238601851  0.6786863261185992 1.0000   
         C         C         1.0       0.5952095936663171  0.49728107884708533           0.666724664284248  1.0000   
         C         C         1.0       0.604717847723084   0.5210710270940556  0.6665918684495963 1.0000   
         C         C         1.0       0.642566004669551   0.46533834915931727           0.7128221639520936 1.0000   
         C         C         1.0       0.7150189147440927  0.4902534670812536  0.7378985144966713 1.0000   
         C         C         1.0       0.7007920781515753  0.4795502388979668  0.7587475274550302 1.0000   
         C         C         1.0       0.6786796973762119  0.4729889101912434  0.7507481758770987 1.0000   
         C         C         1.0       0.6688002998464377  0.47498677876325546           0.7232797695907088 1.0000   
         C         C         1.0       0.6839882057482666  0.48766734526514466           0.7045580896732658 1.0000   
         C         C         1.0       0.7061374157729701  0.49517886174866227           0.7111724421295166 1.0000   
         C         C         1.0       0.6514989816965694  0.44422128511818293           0.6916793531394346 1.0000   
         C         C         1.0       0.6563337673518983  0.4487397423992617  0.663732258392814  1.0000   
         C         C         1.0       0.6671454533133688  0.431262149895783   0.6469792095782191 1.0000   
         C         C         1.0       0.6741263479466205  0.40972939995711144           0.6580454421465702 1.0000   
         C         C         1.0       0.6687701346658939  0.40492154390393553           0.6858984254333821 1.0000   
         C         C         1.0       0.6586441288669317  0.42248900206044315           0.7028848953983401 1.0000   
         C         C         1.0       0.6085154434959089  0.4354280059994923  0.7284575290908829 1.0000   
         C         C         1.0       0.5881357990282454  0.43032835291967053           0.7452011742403157 1.0000   
         C         C         1.0       0.5825887126960123  0.44528091622082694           0.7682983857268842 1.0000   
         C         C         1.0       0.5993300925620909  0.46238834195062695           0.7762100958204845 1.0000   
         C         C         1.0       0.6195950332139264  0.46610003775841286           0.7611375677274164 1.0000   
         C         C         1.0       0.6236192102225004  0.454179787113668   0.7348024096718543 1.0000   
         H         H         1.0       0.6108315111709358  0.5891144436406378  0.6273634925059811 1.0000   
         H         H         1.0       0.6393171155546327  0.5186792715812562  0.6263048277745012 1.0000   
         H         H         1.0       0.6782144485994693  0.5343576243670484  0.6123669872519674 1.0000   
         H         H         1.0       0.7182071028995407  0.5122432096985169  0.09073417112143223          1.0000   
         H         H         1.0       0.6017638747286532  0.5002668936191741  0.60833534895079   1.0000   
         H         H         1.0       0.6589378891256883  0.3800901040578326  0.11556437684714749          1.0000   
         H         H         1.0       0.6105191656803023  0.43718139854604215           0.09177005814690142          1.0000   
         H         H         1.0       0.6350401553587585  0.4665971329786151  0.11211849961983567          1.0000   
         H         H         1.0       0.6226289389456613  0.546540589541326   0.6943453112238658 1.0000   
         H         H         1.0       0.6410135122107103  0.5125087149201705  0.7233636643288076 1.0000   
         H         H         1.0       0.6036898157713633  0.46109661317239176           0.6753510446390392 1.0000   
         H         H         1.0       0.5821984698317211  0.49131730598140144           0.6510799823763387 1.0000   
         H         H         1.0       0.7058594155996528  0.476168590888361   0.7807269200064393 1.0000   
         H         H         1.0       0.6686348413140608  0.46541890698764626           0.768425709828411  1.0000   
         H         H         1.0       0.6780636607901527  0.49311657731361225           0.6838967398607063 1.0000   
         H         H         1.0       0.716040194814246   0.5043382708963078  0.6950870256731176 1.0000   
         H         H         1.0       0.6520276606775773  0.46596152246096223           0.6542806475481816 1.0000   
         H         H         1.0       0.6748138292985429  0.43526541536800234           0.6266345079221922 1.0000   
         H         H         1.0       0.6734423359574868  0.38817088151648654           0.697130735622358  1.0000   
         H         H         1.0       0.6553313115226583  0.4172996021858339  0.7252289127302375 1.0000   
         H         H         1.0       0.6097507430257786  0.4234665142511342  0.7080704632367282 1.0000   
         H         H         1.0       0.5767629618965164  0.415911878452031   0.7377855016137145 1.0000   
         H         H         1.0       0.5966855294923177  0.47387328400163714           0.79642022797926   1.0000   
         H         H         1.0       0.6323709092411478  0.4800635683769933  0.7656015727730399 1.0000   
         C         C         1.0       0.5963486550279081  0.5413968296418044  0.9426193768697655 1.0000   
         C         C         1.0       0.5871783514097418  0.5185950027505277  0.9467925915918488 1.0000   
         C         C         1.0       0.5941703053909259  0.49907936053749347           0.9292396481747571 1.0000   
         C         C         1.0       0.6133391293995561  0.5021890601736663  0.9096112154736924 1.0000   
         C         C         1.0       0.623248709693642   0.5248089293407119  0.9083824045309704 1.0000   
         C         C         1.0       0.6158807368985957  0.5435270157924903  0.9254747921463592 1.0000   
         H         H         1.0       0.5740539562116668  0.5131480425019309  0.9617866536140057 1.0000   
         H         H         1.0       0.5873285500321974  0.480916461085613   0.9348350266274849 1.0000   
         H         H         1.0       0.6381307402669762  0.530381003359206   0.8949143669749476 1.0000   
         H         H         1.0       0.6235582791684519  0.5612780892546451  0.9243731196839584 1.0000   
         C         C         1.0       0.6250358566981199  0.5072686414938736  0.8456431849574462 1.0000   
         C         C         1.0       0.637582892379568   0.4921830260687804  0.8630564635288831 1.0000   
         C         C         1.0       0.6616634567514081  0.48680961382660337           0.8560582908109431 1.0000   
         C         C         1.0       0.6728030979463829  0.49831793729377855           0.8336793959260015 1.0000   
         C         C         1.0       0.6608548466607637  0.5143880382583222  0.817832069171581  1.0000   
         C         C         1.0       0.6367600478859305  0.5179295001482054  0.8229348010899701 1.0000   
         C         C         1.0       0.6237973097850928  0.4816126723864458  0.8899587908482628 1.0000   
         C         C         1.0       0.604499895915229   0.46266570777802835           0.8752674947761134 1.0000   
         C         C         1.0       0.6128702392698674  0.4429354368027984  0.8603566134295149 1.0000   
         C         C         1.0       0.5979219531950695  0.4294043433660093  0.8423292432285185 1.0000   
         C         C         1.0       0.5750718790619507  0.4359553190712977  0.8368070716064373 1.0000   
         C         C         1.0       0.5660139671747773  0.45371466057878707           0.8545098905531269 1.0000   
         C         C         1.0       0.5802549014660134  0.4672673315264672  0.8731830142903039 1.0000   
         C         C         1.0       0.6588548209461358  0.4831537332077795  0.924394141824495  1.0000   
         C         C         1.0       0.6703085570254488  0.47548634739937806           0.9497290229986652 1.0000   
         C         C         1.0       0.6594440331824003  0.45764054641366636           0.9665575858649937 1.0000   
         C         C         1.0       0.6429633820075684  0.44322944911485773           0.9543402456309434 1.0000   
         C         C         1.0       0.6341334306492129  0.44811622794298933           0.9273550859607939 1.0000   
         C         C         1.0       0.6397794368733521  0.46970676376312176           0.9130784189168263 1.0000   
         C         C         1.0       0.6663896197391525  0.45723190677778697           0.9998643435337548 1.0000   
         C         C         1.0       0.6311579346940522  0.5168078853112077  0.04843818084304696          1.0000   
         C         C         1.0       0.6446342826424685  0.4984993806030692  0.06154197481333057          1.0000   
         C         C         1.0       0.6572125213510087  0.48189674877145167           0.044827563069227416         1.0000   
         C         C         1.0       0.6562529079444002  0.4814075515869177  0.01512269212009798          1.0000   
         C         C         1.0       0.6445115391895144  0.5003674912741801  0.0039564972535468534        1.0000   
         C         C         1.0       0.6306924341310992  0.5165799442313372  0.019371129879306448         1.0000   
         C         C         1.0       0.6948378298258345  0.4548136290565681  0.0008279763590739453        1.0000   
         C         C         1.0       0.7074920333851296  0.4399574887917645  0.9816626435862658 1.0000   
         C         C         1.0       0.7318549254744059  0.4352907388663457  0.9847687969762497 1.0000   
         C         C         1.0       0.7437893762868493  0.44528707565868664           0.007388962686917688         1.0000   
         C         C         1.0       0.7335671535335484  0.4637205140137225  0.022931356607551523         1.0000   
         C         C         1.0       0.7092452329211597  0.467262921909563   0.019889409131896407         1.0000   
         C         C         1.0       0.6648341084618271  0.4155488657567239  0.023116324463589688         1.0000   
         C         C         1.0       0.6535977851991949  0.3976478822743385  0.03700890825300651          1.0000   
         C         C         1.0       0.6295741795638907  0.39725003513334756           0.04262616669191277          1.0000   
         C         C         1.0       0.616759293561249   0.416246883944691   0.03301392274931381          1.0000   
         C         C         1.0       0.6276343001945917  0.43525461200420706           0.019126914126609496         1.0000   
         C         C         1.0       0.6517750474919597  0.4357238203838589  0.015170430229925591         1.0000   
         H         H         1.0       0.6068690116429241  0.510275765956599   0.8497194642973935 1.0000   
         H         H         1.0       0.6735316640626253  0.474900144808378   0.867565989454262  1.0000   
         H         H         1.0       0.6914797926887517  0.4939903306695702  0.8294396137299296 1.0000   
         H         H         1.0       0.6260527191430514  0.5296781337874568  0.8110763920861997 1.0000   
         H         H         1.0       0.6320631482138233  0.4387242802425341  0.8620913152508258 1.0000   
         H         H         1.0       0.6062795078946356  0.41387354763281264           0.8307417465796726 1.0000   
         H         H         1.0       0.5471726729354295  0.4583381785950076  0.853080991455387  1.0000   
         H         H         1.0       0.5711451115728969  0.48293192956787456           0.8816156432858483 1.0000   
         H         H         1.0       0.6626661495058795  0.5010791528752534  0.9144372447708821 1.0000   
         H         H         1.0       0.6839072159242189  0.486684563645409   0.959449291320456  1.0000   
         H         H         1.0       0.63517157342432    0.42712393108484725           0.9647341211953349 1.0000   
         H         H         1.0       0.6223218924606388  0.4338584476382848  0.9197642228825189 1.0000   
         H         H         1.0       0.6418636967598679  0.4976041037658651  0.08485008984125186          1.0000   
         H         H         1.0       0.6674206783293771  0.4682855715342482  0.056186990480780796         1.0000   
         H         H         1.0       0.6415646197543978  0.5030794554762718  0.9817232756613067 1.0000   
         H         H         1.0       0.6197335189579066  0.5301912120970864  0.0076605435822272305        1.0000   
         H         H         1.0       0.6977627106220448  0.42880196859298964           0.9655590225630164 1.0000   
         H         H         1.0       0.7386657957240214  0.4222620987936241  0.9690418714634358 1.0000   
         H         H         1.0       0.7442752338226816  0.4747904784929535  0.03708183947128507          1.0000   
         H         H         1.0       0.7025968067689826  0.4794292270624961  0.03533650419261258          1.0000   
         H         H         1.0       0.6839856308358299  0.4140928838972397  0.019974372112731675         1.0000   
         H         H         1.0       0.664037053073156   0.38310211866326593           0.04521559618938076          1.0000   
         H         H         1.0       0.5982100281543639  0.4169197209585537  0.03871957597781561          1.0000   
         H         H         1.0       0.6183148978764103  0.44977538556451785           0.012977094520609578         1.0000   
         C         C         1.0       0.819719055056328   0.657680418322689   0.7361926428776414 1.0000   
         C         C         1.0       0.7994625181548344  0.6701410670862193  0.7358611281185669 1.0000   
         C         C         1.0       0.776992368811187   0.6580230643545216  0.7398520618374153 1.0000   
         C         C         1.0       0.776116317918396   0.6336796201828694  0.7469989812418316 1.0000   
         C         C         1.0       0.7978705707067283  0.6230462480381549  0.7492729237398055 1.0000   
         C         C         1.0       0.8188626663308333  0.6342840094860093  0.7432084899154846 1.0000   
         H         H         1.0       0.7988927979625877  0.6892131621837776  0.733953930126224  1.0000   
         H         H         1.0       0.7619955506370378  0.6701789816920091  0.7403785015303812 1.0000   
         H         H         1.0       0.7978793069374571  0.6049219784157203  0.7562468674276118 1.0000   
         H         H         1.0       0.8349085211924313  0.6242378737810751  0.7411486337745155 1.0000   
         C         C         1.0       0.7602624164546676  0.5816603773554977  0.7218421946327618 1.0000   
         C         C         1.0       0.750073493301512   0.5913614487569875  0.7454718807476188 1.0000   
         C         C         1.0       0.7349743820695805  0.5764106215670114  0.7605621275484373 1.0000   
         C         C         1.0       0.734149149420767   0.5516503993425919  0.755735716194883  1.0000   
         C         C         1.0       0.750045281643631   0.5415795777882068  0.7364553372620826 1.0000   
         C         C         1.0       0.7628579865469459  0.5574650374032171  0.7187713305510076 1.0000   
         C         C         1.0       0.7529073714904784  0.6194537239010509  0.7560370522027388 1.0000   
         C         C         1.0       0.7276569070935501  0.6274257009664008  0.7412597139288691 1.0000   
         C         C         1.0       0.7052563459071635  0.6255956398524003  0.7545554984079633 1.0000   
         C         C         1.0       0.6856418459596171  0.6336815818784615  0.7412675470205368 1.0000   
         C         C         1.0       0.6867333685083791  0.6415423487427887  0.7149141651234991 1.0000   
         C         C         1.0       0.7082758439481487  0.6413452906972021  0.7000654141415846 1.0000   
         C         C         1.0       0.7282269321424293  0.6337838605298891  0.7132796687784302 1.0000   
         C         C         1.0       0.7644123526582394  0.6073257754787889  0.8059155577509423 1.0000   
         C         C         1.0       0.7611594814905763  0.6080432181643158  0.834744877088952  1.0000   
         C         C         1.0       0.7439481490538534  0.6235987738142126  0.8476467388848373 1.0000   
         C         C         1.0       0.7351483714572322  0.6408694358626953  0.8304066731783347 1.0000   
         C         C         1.0       0.7413744102528299  0.642784497227963   0.8011646340137212 1.0000   
         C         C         1.0       0.7552404228516739  0.6244046061839037  0.7889319511669458 1.0000   
         C         C         1.0       0.7330952523772152  0.6143025047113168  0.8766905642316587 1.0000   
         C         C         1.0       0.6842407096440412  0.5706506165914059  0.8241336229532452 1.0000   
         C         C         1.0       0.7035840918111442  0.5610737327379107  0.83557709951199   1.0000   
         C         C         1.0       0.7173960781082012  0.5729651582784154  0.8563541556966549 1.0000   
         C         C         1.0       0.7125450264212729  0.5971699441552553  0.8632379945982113 1.0000   
         C         C         1.0       0.6922871078424275  0.6064842551295385  0.8509220321801919 1.0000   
         C         C         1.0       0.6781633555228894  0.5937154685030339  0.8309062953486329 1.0000   
         C         C         1.0       0.7236068478808788  0.6345718103256006  0.89583227269283   1.0000   
         C         C         1.0       0.7351269752984821  0.6569052761663353  0.9001172497514787 1.0000   
         C         C         1.0       0.7272525449163109  0.6744839182784467  0.9182252267843624 1.0000   
         C         C         1.0       0.7072945828752526  0.6699549540401396  0.9337044464888095 1.0000   
         C         C         1.0       0.6942944982286039  0.649237735677299   0.9304963379105831 1.0000   
         C         C         1.0       0.7021674681138507  0.631823897190756   0.9109915901687586 1.0000   
         C         C         1.0       0.7458927459570447  0.5856237654173927  0.9175796196912895 1.0000   
         C         C         1.0       0.7614175767603611  0.578122130377157   0.9385327268403253 1.0000   
         C         C         1.0       0.7833750186788166  0.5898940715538007  0.9429377775184129 1.0000   
         C         C         1.0       0.7900521891666513  0.6072803083901462  0.9237193257209508 1.0000   
         C         C         1.0       0.7752172593238555  0.613807882026319   0.903740419710674  1.0000   
         C         C         1.0       0.7518174790515708  0.6038154550499627  0.8998351107401598 1.0000   
         H         H         1.0       0.773477110026348   0.5940389824210848  0.7109659760518643 1.0000   
         H         H         1.0       0.7253930076207183  0.5826184370151251  0.779606438803201  1.0000   
         H         H         1.0       0.7239538118285962  0.5402880668628981  0.7709761589659445 1.0000   
         H         H         1.0       0.7757643921924192  0.5495666305550314  0.7026515556127586 1.0000   
         H         H         1.0       0.7018768973784969  0.6201347032960344  0.7763076579265787 1.0000   
         H         H         1.0       0.6683065677533101  0.6358017861247549  0.7529421997721643 1.0000   
         H         H         1.0       0.710612784409626   0.6436158506378026  0.6778415771617521 1.0000   
         H         H         1.0       0.7459885469953828  0.6353618485680352  0.7007329256705526 1.0000   
         H         H         1.0       0.774104326363535   0.5919205979658796  0.7972912468639429 1.0000   
         H         H         1.0       0.7688065584085021  0.5954289665889699  0.8480316972369004 1.0000   
         H         H         1.0       0.723793912678512   0.6541932718912516  0.840467285094056  1.0000   
         H         H         1.0       0.7340201504900974  0.6560482047136091  0.7878928083189511 1.0000   
         H         H         1.0       0.7071084782574325  0.5425117838155146  0.8327134097957071 1.0000   
         H         H         1.0       0.7345531981166653  0.5641676436633517  0.8621418682272348 1.0000   
         H         H         1.0       0.6886640563171068  0.6253937428394046  0.8542616996439055 1.0000   
         H         H         1.0       0.6642810661348798  0.6035093627123491  0.8216893236517137 1.0000   
         H         H         1.0       0.7495789888798697  0.6619701714821344  0.8873061152191675 1.0000   
         H         H         1.0       0.7360633779634042  0.6923337049204462  0.9222747303657873 1.0000   
         H         H         1.0       0.6794294010755837  0.644572036664132   0.9435189489017086 1.0000   
         H         H         1.0       0.6923286232067165  0.6141063474578041  0.9107689706188956 1.0000   
         H         H         1.0       0.7278022359914709  0.5779716684352904  0.9161374020430797 1.0000   
         H         H         1.0       0.755734372709263   0.5633851805653926  0.9528642241721106 1.0000   
         H         H         1.0       0.8076258485038188  0.6159365724747587  0.9276593141813171 1.0000   
         H         H         1.0       0.7811717863816531  0.6275540898863583  0.8904757849236941 1.0000   
         C         C         1.0       0.7143403870709214  0.6727449242441313  0.0072751561504813544        1.0000   
         C         C         1.0       0.7179579089302714  0.680288994328943   0.03489467165898752          1.0000   
         C         C         1.0       0.7123319656098984  0.6659971867266811  0.05790182444591885          1.0000   
         C         C         1.0       0.7029209384352664  0.6424111461467419  0.054060984770559095         1.0000   
         C         C         1.0       0.6991028391320441  0.634004148604291   0.02451617755799007          1.0000   
         C         C         1.0       0.7041703581239159  0.6488844280326294  0.0022926297027912046        1.0000   
         H         H         1.0       0.7239783794996332  0.698309477583639   0.037452139773101134         1.0000   
         H         H         1.0       0.7163857527060773  0.6736264667422769  0.07849700905696522          1.0000   
         H         H         1.0       0.6901579466247255  0.6172433094212598  0.019323741653517912         1.0000   
         H         H         1.0       0.6988896558807828  0.64249504773223    0.9820212313046798 1.0000   
         C         C         1.0       0.6633815357080116  0.602784780147723   0.06368874163055116          1.0000   
         C         C         1.0       0.685741003712226   0.6019575083126921  0.07769354527426064          1.0000   
         C         C         1.0       0.692206362502291   0.5801651790462852  0.0908447109479611 1.0000   
         C         C         1.0       0.675968431961814   0.5610808429364447  0.09147085301952629          1.0000   
         C         C         1.0       0.6531047040782487  0.5632224005180569  0.07951753284127094          1.0000   
         C         C         1.0       0.648174819713659   0.5832691672225632  0.06416384379149531          1.0000   
         C         C         1.0       0.7002347020805502  0.6263878488903663  0.08268805872484775          1.0000   
         C         C         1.0       0.6839078621605821  0.6395332167784983  0.10576564309132763          1.0000   
         C         C         1.0       0.6824919993394672  0.63275249049548    0.13461835464224103          1.0000   
         C         C         1.0       0.6646914660861934  0.6423491543569196  0.15333828979522246          1.0000   
         C         C         1.0       0.6455459360008848  0.6542065742823099  0.14133681722944957          1.0000   
         C         C         1.0       0.6462068920214115  0.6606086586315446  0.1135245067671633 1.0000   
         C         C         1.0       0.6645442679855145  0.6528719193621926  0.09571807492313344          1.0000   
         C         C         1.0       0.7409587298244098  0.607157800594186   0.06858925192156007          1.0000   
         C         C         1.0       0.763999098113089   0.6001191181375962  0.07126653170010333          1.0000   
         C         C         1.0       0.776649535844535   0.607750650945107   0.09548446902104302          1.0000   
         C         C         1.0       0.7641996550892802  0.6208370963181686  0.11745768334910722          1.0000   
         C         C         1.0       0.7415503300495658  0.6288316439846807  0.11195026372761219          1.0000   
         C         C         1.0       0.7286610794372902  0.621667299470641   0.08871745956775401          1.0000   
         C         C         1.0       0.7993976094988987  0.6306833362995644  0.605693082150913  1.0000   
         C         C         1.0       0.7366743293159308  0.5869867608712853  0.6252988316603885 1.0000   
         C         C         1.0       0.746515255598925   0.5854615449407389  0.5987155581179084 1.0000   
         C         C         1.0       0.7673168574989256  0.59780765597252    0.5928010820957462 1.0000   
         C         C         1.0       0.7796003766260937  0.6105625589835337  0.6145721889754329 1.0000   
         C         C         1.0       0.7691877411702498  0.6101961794341514  0.6413631248422484 1.0000   
         C         C         1.0       0.7483916899055986  0.5981576729823925  0.6476378972430957 1.0000   
         C         C         1.0       0.8159952300869374  0.6372342996602662  0.6317398799465032 1.0000   
         C         C         1.0       0.8227559520192265  0.6609592822633972  0.6378690845282082 1.0000   
         C         C         1.0       0.8376679613932154  0.6672138222155036  0.6605099118001657 1.0000   
         C         C         1.0       0.846689801182399   0.6486817191745551  0.676697288516446  1.0000   
         C         C         1.0       0.840752496007341   0.6245386920785845  0.670980790954295  1.0000   
         C         C         1.0       0.8250772888988205  0.6195875241313631  0.6487016885651782 1.0000   
         C         C         1.0       0.8256381107347707  0.5953335668523013  0.583814257345844  1.0000   
         C         C         1.0       0.8453956348767919  0.58715293265016    0.5680263329166529 1.0000   
         C         C         1.0       0.8491439144221694  0.6320526469361586  0.02879068721977296          1.0000   
         C         C         1.0       0.8270215808501891  0.6422807019598641  0.034429789718093406         1.0000   
         C         C         1.0       0.8126479292936182  0.6332101784873345  0.056502302076314015         1.0000   
         C         C         1.0       0.819609414196091   0.6197733831548488  0.5854011402591828 1.0000   
         H         H         1.0       0.6582960684164639  0.6190585757761977  0.054478979678448836         1.0000   
         H         H         1.0       0.7084379011185296  0.5791617627193706  0.1036234793730142 1.0000   
         H         H         1.0       0.6795113858126064  0.5444772041825309  0.1017840692123968 1.0000   
         H         H         1.0       0.6306051871144097  0.5855651894920662  0.05824572282282103          1.0000   
         H         H         1.0       0.694899494732666   0.6198391515175047  0.14351464615455956          1.0000   
         H         H         1.0       0.6643554162246693  0.6377487917354927  0.17504972948815878          1.0000   
         H         H         1.0       0.6318619550879504  0.6717668288956206  0.10248513251055646          1.0000   
         H         H         1.0       0.6611675189408163  0.6555759480318496  0.071951810222876  1.0000   
         H         H         1.0       0.7311347077814346  0.5993264496048366  0.051621324207521635         1.0000   
         H         H         1.0       0.7747859741255342  0.5932408136637912  0.054338627684275  1.0000   
         H         H         1.0       0.771975009322366   0.6642498792321462  0.6346741247927417 1.0000   
         H         H         1.0       0.7324734782481014  0.6381113415654501  0.1289405608430887 1.0000   
         H         H         1.0       0.7380980858933838  0.5734624543583743  0.5809036430427823 1.0000   
         H         H         1.0       0.7725424964008306  0.5978289341379278  0.5709330510272137 1.0000   
         H         H         1.0       0.7742652497530177  0.6219469364112616  0.6578079645598472 1.0000   
         H         H         1.0       0.7396650119703422  0.5989796500146096  0.6690350523139599 1.0000   
         H         H         1.0       0.8155161739250837  0.6750324913296695  0.6260496665128357 1.0000   
         H         H         1.0       0.840935305278024   0.686390782989591   0.6657664477885425 1.0000   
         H         H         1.0       0.8484751336812763  0.6106429543572421  0.682842454297848  1.0000   
         H         H         1.0       0.8222650539830193  0.5997881662646235  0.6442308897279437 1.0000   
         H         H         1.0       0.8159029941169806  0.582944077073483   0.5974323710718433 1.0000   
         H         H         1.0       0.8513045120780566  0.5689390319338132  0.5715878952459738 1.0000   
         H         H         1.0       0.8230781971603656  0.6572890497149068  0.020520228803962537         1.0000   
         H         H         1.0       0.7963234150156441  0.6414194105094675  0.06305040177243759          1.0000   
         C         C         1.0       0.49239702650981093           0.6243801221753108 0.701575906845077  1.0000   
         C         C         1.0       0.4687858055182462  0.6174657758573661  0.6980634737516601 1.0000   
         C         C         1.0       0.45112273287283833           0.6276968967346506 0.7132826054862795 1.0000   
         C         C         1.0       0.4546995043625596  0.6489002508101953  0.7289575356383279 1.0000   
         C         C         1.0       0.4787414165789715  0.6570284790001208  0.7301046201581426 1.0000   
         C         C         1.0       0.4967002068354479  0.6463528781904885  0.7155563095374848 1.0000   
         H         H         1.0       0.4629708772888531  0.6013794765323565  0.6848515494171613 1.0000   
         H         H         1.0       0.43190226230399986           0.6228106383831463 0.7090614328972145 1.0000   
         H         H         1.0       0.48385126448784643           0.6752429826040324 0.7367877835527944 1.0000   
         H         H         1.0       0.5130290462167678  0.6553282631340277  0.7184221723423068 1.0000   
         C         C         1.0       0.45680678884399334           0.6889636523441849 0.7789078173681997 1.0000   
         C         C         1.0       0.4390408679564519  0.6896365977589383  0.7588484196482431 1.0000   
         C         C         1.0       0.4301034617089549  0.7120813727272354  0.7520876423424743 1.0000   
         C         C         1.0       0.4394639921619275  0.7337034344393779  0.7636208740461671 1.0000   
         C         C         1.0       0.45970045038525614           0.7318814362326181 0.7801727380404455 1.0000   
         C         C         1.0       0.468221148182111   0.7098476907937965  0.788997322393611  1.0000   
         C         C         1.0       0.43224551963079133           0.6654558031879241 0.7409052899435753 1.0000   
         C         C         1.0       0.4125487457595279  0.6520601729092182  0.7585474463783676 1.0000   
         C         C         1.0       0.3897341319595483  0.6626877031112308  0.7617449466883713 1.0000   
         C         C         1.0       0.3717820238210939  0.6509701545870263  0.7759478732936681 1.0000   
         C         C         1.0       0.3765889290077084  0.6304181540257678  0.7900865785925241 1.0000   
         C         C         1.0       0.39866633909334426           0.6212432918208828 0.7883023677854015 1.0000   
         C         C         1.0       0.41680648569033596           0.6316457937211891 0.7710575669895594 1.0000   
         C         C         1.0       0.43407213893758456           0.6889520067786177 0.6955537467453641 1.0000   
         C         C         1.0       0.42328374960417414           0.7013881903206254 0.6754625255309852 1.0000   
         C         C         1.0       0.4003896042194505  0.6946028421093013  0.6654987012550648 1.0000   
         C         C         1.0       0.38988928546883006           0.6755329137409803 0.6774071433966518 1.0000   
         C         C         1.0       0.40041066652274415           0.6640352566498402 0.699561230690775  1.0000   
         C         C         1.0       0.4218345685771142  0.6716589896241449  0.7107091875544931 1.0000   
         C         C         1.0       0.3887071900338177  0.7083742169852001  0.637879039656522  1.0000   
         C         C         1.0       0.4409316088550185  0.7631178476899959  0.6149826819072166 1.0000   
         C         C         1.0       0.4375705923682914  0.7436922551288769  0.5970255731303911 1.0000   
         C         C         1.0       0.41956595964985016           0.7272730858187507 0.6028897453836352 1.0000   
         C         C         1.0       0.4051351541564546  0.728997048599828   0.6271131409871741 1.0000   
         C         C         1.0       0.4082268127291234  0.7495426484700326  0.644277073705198  1.0000   
         C         C         1.0       0.42504451834663665           0.7660869595291898 0.6370811777151961 1.0000   
         C         C         1.0       0.36430863414988596           0.7217698096727387 0.6472698528427568 1.0000   
         C         C         1.0       0.355922229292936   0.7216840920475496  0.6745297086902993 1.0000   
         C         C         1.0       0.33406235166421466           0.7316261886362156 0.68164394117703   1.0000   
         C         C         1.0       0.32148566232520986           0.7431828320020487 0.6618027524500807 1.0000   
         C         C         1.0       0.32972572004715783           0.7430687492985995 0.6334618119742924 1.0000   
         C         C         1.0       0.3506364432138065  0.7325036142836665  0.6271813842418729 1.0000   
         C         C         1.0       0.36033709766412997           0.6772087174370773 0.6087950834424287 1.0000   
         C         C         1.0       0.356909838711806   0.6549326753682866  0.5952665007565747 1.0000   
         C         C         1.0       0.37538447321188456           0.6404107439157245 0.58866718013101   1.0000   
         C         C         1.0       0.3985439794081194  0.6474467301545394  0.5949244670405351 1.0000   
         C         C         1.0       0.40278470214851064           0.6697691554241259 0.6064281145084022 1.0000   
         C         C         1.0       0.3837774826963053  0.6867148871247115  0.6133713943999225 1.0000   
         H         H         1.0       0.46457984721297846           0.6709378758221427 0.785764771734878  1.0000   
         H         H         1.0       0.4141758082888984  0.7134934869713444  0.7381172539490214 1.0000   
         H         H         1.0       0.4319774364253541  0.7502802607819979  0.7569851331746652 1.0000   
         H         H         1.0       0.48336774079712846           0.7103979443364311 0.8036114767696502 1.0000   
         H         H         1.0       0.3850388610595546  0.6807179504291273  0.753617247519738  1.0000   
         H         H         1.0       0.35371904591129694           0.6591431669179534 0.7782352081887869 1.0000   
         H         H         1.0       0.40413196306320076           0.6058364492780318 0.8013549573583681 1.0000   
         H         H         1.0       0.4333791417267818  0.6236966200793223  0.7663680529310505 1.0000   
         H         H         1.0       0.4515592598045384  0.6965210165512741  0.7032569540667402 1.0000   
         H         H         1.0       0.4329329804988261  0.7181150001648002  0.6697296568959827 1.0000   
         H         H         1.0       0.37277814931272185           0.6684613371489484 0.672167054032771  1.0000   
         H         H         1.0       0.3926396723708605  0.6486780237680089  0.7111934728164634 1.0000   
         H         H         1.0       0.4529396554318433  0.7201916572020053  0.10001448990255635          1.0000   
         H         H         1.0       0.41759322190872616           0.7128167948581919 0.5876490902667713 1.0000   
         H         H         1.0       0.40140663032171325           0.7511607112606864 0.6650116785549212 1.0000   
         H         H         1.0       0.42621384150329067           0.7826470089097107 0.6501727253241429 1.0000   
         H         H         1.0       0.36414247715107756           0.7134850220262718 0.6921270166433302 1.0000   
         H         H         1.0       0.32809580799462257           0.7316502722298676 0.7040207618068725 1.0000   
         H         H         1.0       0.31946381271685426           0.7520657730703184 0.6174159522266611 1.0000   
         H         H         1.0       0.3559059487429238  0.7312043080661521  0.6040926455684054 1.0000   
         H         H         1.0       0.34427235374303367           0.6845778765013805 0.6182627472381718 1.0000   
         H         H         1.0       0.3388760650174358  0.6493695908177239  0.5912878191794233 1.0000   
         H         H         1.0       0.47307542699887106           0.6071929379650816 0.07407834874353791          1.0000   
         H         H         1.0       0.42083600866046256           0.6734931931756141 0.6143972422178614 1.0000   
         C         C         1.0       0.5498414847825539  0.5923193071981373  0.9484342395906892 1.0000   
         C         C         1.0       0.5261803296686979  0.5855111745554891  0.9419431912253997 1.0000   
         C         C         1.0       0.5073876764001722  0.599423305686458   0.952800804092495  1.0000   
         C         C         1.0       0.5119735784790453  0.6200647856180082  0.9696763361578733 1.0000   
         C         C         1.0       0.5358742185318849  0.6273390921252819  0.9726239349772159 1.0000   
         C         C         1.0       0.5536981120050724  0.6130114591706045  0.9637824718902979 1.0000   
         H         H         1.0       0.5222292647899605  0.569928262481157   0.9307157467921026 1.0000   
         H         H         1.0       0.48960138089131544           0.5941534835415312 0.9478399824614361 1.0000   
         H         H         1.0       0.5385666389815125  0.6448479873454593  0.9840227963261597 1.0000   
         H         H         1.0       0.5716726239606714  0.6187618199240221  0.9656438105042772 1.0000   
         C         C         1.0       0.5147181611852888  0.6401469215616907  0.03313611767206193          1.0000   
         C         C         1.0       0.49912002411898776           0.6498131764980649 0.01366808570227418          1.0000   
         C         C         1.0       0.48871351572710137           0.6726824229083603 0.018993692513581628         1.0000   
         C         C         1.0       0.49460646134346015           0.6854316666714391 0.04290306072010952          1.0000   
         C         C         1.0       0.510746751613355   0.6763782243287916  0.061775846702472936         1.0000   
         C         C         1.0       0.5211511327679312  0.6542360947280743  0.056089271987404654         1.0000   
         C         C         1.0       0.49141296456084627           0.6329080711224457 0.986621348833121  1.0000   
         C         C         1.0       0.47353067992896847           0.6149859562479042 0.0031425028553009327        1.0000   
         C         C         1.0       0.4512623110024174  0.6226234376644258  0.012611837779546775         1.0000   
         C         C         1.0       0.43541799164489264           0.6061763579636003 0.025615859373661953         1.0000   
         C         C         1.0       0.44288828052232526           0.5832089366955711 0.03184101329181033          1.0000   
         C         C         1.0       0.4656096044591223  0.5761647083893897  0.024224823596656675         1.0000   
         C         C         1.0       0.48062105076763956           0.5916879004876124 0.010910266166054505         1.0000   
         C         C         1.0       0.4924968855039194  0.6672252193247371  0.9476568720978279 1.0000   
         C         C         1.0       0.48379325666041034           0.6759565273179144 0.9227369845462231 1.0000   
         C         C         1.0       0.46261200241544553           0.6682209918369667 0.9099178418598135 1.0000   
         C         C         1.0       0.4500681081306132  0.6501205644635298  0.9247665225270939 1.0000   
         C         C         1.0       0.45854170734927674           0.6414386345561212 0.9497782795516768 1.0000   
         C         C         1.0       0.48042136750824405           0.6480932872629136 0.9605222027599837 1.0000   
         C         C         1.0       0.45341449058074046           0.6753937194340717 0.8788383972647232 1.0000   
         C         C         1.0       0.5134416352901864  0.6498250841428002  0.8262562663882472 1.0000   
         C         C         1.0       0.49108741439197623           0.6408338051911625 0.8230117027883767 1.0000   
         C         C         1.0       0.47242001263394817           0.6503901623151027 0.8380183187082928 1.0000   
         C         C         1.0       0.47569827857900804           0.669118660745823  0.8571964993307499 1.0000   
         C         C         1.0       0.4980562802240306  0.6798268832981953  0.8565690684220925 1.0000   
         C         C         1.0       0.5174868599213179  0.6704971787739401  0.8425898557091676 1.0000   
         C         C         1.0       0.4497973125642873  0.7035369109412013  0.8841894285370842 1.0000   
         C         C         1.0       0.43342702966318647           0.7120471419586254 0.9056170363462533 1.0000   
         C         C         1.0       0.4257752981567217  0.7346522005290359  0.9079293246414339 1.0000   
         C         C         1.0       0.43728619481949044           0.7520496766389018 0.8923668909101369 1.0000   
         C         C         1.0       0.45382192893391127           0.7453103415816573 0.8722847917124265 1.0000   
         C         C         1.0       0.4601085273791491  0.721798264708913   0.8678749190455213 1.0000   
         C         C         1.0       0.4124055967353342  0.6778076628728604  0.8541395315520002 1.0000   
         C         C         1.0       0.39145580872697555           0.6681748614767143 0.8436189370170722 1.0000   
         C         C         1.0       0.38422664908265236           0.6447457165301645 0.8503302942236107 1.0000   
         C         C         1.0       0.39979783005093705           0.6298007431908442 0.8644715334141388 1.0000   
         C         C         1.0       0.4222227317409972  0.638846505797121   0.8712551633361584 1.0000   
         C         C         1.0       0.42819003357377594           0.6632568026096528 0.8695137557427577 1.0000   
         H         H         1.0       0.520689060297492   0.621444244131073   0.03064761667467697          1.0000   
         H         H         1.0       0.47860858673871876           0.6829465360842114 0.004831329773724358         1.0000   
         H         H         1.0       0.4883061784456199  0.7033831531075428  0.0465710507513617 1.0000   
         H         H         1.0       0.535844273711901   0.6471255247100028  0.0682180897721929 1.0000   
         H         H         1.0       0.4465887860411026  0.6422837750981979  0.009232472265231717         1.0000   
         H         H         1.0       0.41791146768917276           0.6128903065834957 0.03310466217518604          1.0000   
         H         H         1.0       0.4742839705395495  0.5610393644341644  0.034133648762796565         1.0000   
         H         H         1.0       0.4982637694685987  0.5843901564844605  0.004707334188190471         1.0000   
         H         H         1.0       0.5074682611994663  0.6760029512222921  0.9596233366006707 1.0000   
         H         H         1.0       0.49424154765657313           0.6908747107169445 0.9123673786030447 1.0000   
         H         H         1.0       0.4312100478154773  0.6463477482207847  0.9218113151953788 1.0000   
         H         H         1.0       0.44816142983882495           0.6271319030567724 0.9593297094872105 1.0000   
         H         H         1.0       0.4863442135051535  0.6266783717308805  0.8081953004224754 1.0000   
         H         H         1.0       0.4564187454843719  0.6401354172352997  0.8322897438701885 1.0000   
         H         H         1.0       0.5004680247637374  0.6969347908306573  0.8683728710809051 1.0000   
         H         H         1.0       0.5355196184179856  0.6781125990753138  0.8463239875415498 1.0000   
         H         H         1.0       0.42354835914152633           0.699306110167891  0.9177173299070404 1.0000   
         H         H         1.0       0.4090248446134611  0.7399420063540013  0.9181081740921372 1.0000   
         H         H         1.0       0.4618842520478439  0.7597374239434347  0.859468454200993  1.0000   
         H         H         1.0       0.46999396446206315           0.7184633438505053 0.847312152680001  1.0000   
         H         H         1.0       0.41753019102073646           0.6961010938278445 0.8484549593233167 1.0000   
         H         H         1.0       0.3813034832491615  0.6811589004848214  0.8320144215963672 1.0000   
         H         H         1.0       0.3952733578745255  0.6103171605657093  0.8670457167804576 1.0000   
         H         H         1.0       0.43634105881305635           0.6264906219154385 0.8779362656845792 1.0000   
         C         C         1.0       0.6503186234803991  0.7540616320457306  0.867622376359263  1.0000   
         C         C         1.0       0.659954294525134   0.7580973984187256  0.8401005412207668 1.0000   
         C         C         1.0       0.6476034767360695  0.7516556894553827  0.815105913510986  1.0000   
         C         C         1.0       0.6262775942963084  0.7383733674318864  0.8179000354633279 1.0000   
         C         C         1.0       0.6169059863974063  0.7344517797428982  0.8448611277786733 1.0000   
         C         C         1.0       0.6271618309847758  0.7456086193883674  0.8686976339493195 1.0000   
         H         H         1.0       0.6757568106784967  0.7671614072987999  0.839107380456876  1.0000   
         H         H         1.0       0.6541766460799336  0.7552433158861827  0.7939007440480526 1.0000   
         H         H         1.0       0.60044421420498    0.7258741475740015  0.847454358763929  1.0000   
         H         H         1.0       0.6179271366070114  0.7441031261416118  0.8886590494702642 1.0000   
         C         C         1.0       0.5971070390942749  0.6896145306126263  0.8073852027723505 1.0000   
         C         C         1.0       0.5922505676939765  0.7126136305645402  0.7950295114343483 1.0000   
         C         C         1.0       0.5696962411346626  0.7139966616726315  0.7821365887988329 1.0000   
         C         C         1.0       0.5534668400887929  0.6953309468008735  0.7786723109354906 1.0000   
         C         C         1.0       0.5596521725455703  0.673160831433038   0.790552698951999  1.0000   
         C         C         1.0       0.5815486996756571  0.6706183759769669  0.8049064800844352 1.0000   
         C         C         1.0       0.6124633833057457  0.7325788635959112  0.7889508941755963 1.0000   
         C         C         1.0       0.6270090048732079  0.7193355203925643  0.7636197987481558 1.0000   
         C         C         1.0       0.616291278921125   0.7153710199711487  0.7374752763203766 1.0000   
         C         C         1.0       0.6283106512253015  0.7027332709299037  0.716636598627037  1.0000   
         C         C         1.0       0.6501881169206655  0.6929497140007149  0.7213231655892426 1.0000   
         C         C         1.0       0.6594858768147898  0.6932298182818565  0.7492377027283426 1.0000   
         C         C         1.0       0.6485320080760261  0.7076414041415113  0.7696422879962531 1.0000   
         C         C         1.0       0.5868892148990649  0.769957471452329   0.802656779617231  1.0000   
         C         C         1.0       0.5805090834020269  0.793471364687278   0.7991108048091021 1.0000   
         C         C         1.0       0.5839876983631956  0.8058231218963888  0.7743044830859604 1.0000   
         C         C         1.0       0.5957620016038043  0.7929173437781918  0.7520423655724267 1.0000   
         C         C         1.0       0.605059424421201   0.7699911293036529  0.7559296858211506 1.0000   
         C         C         1.0       0.6007230244072226  0.7583357490953933  0.7817060529980476 1.0000   
         C         C         1.0       0.5695855846265275  0.828669966267937   0.7680229265308317 1.0000   
         C         C         1.0       0.5030433024947982  0.7854804680969198  0.7589279155824581 1.0000   
         C         C         1.0       0.5087530828981113  0.796993316681377   0.7849178825385665 1.0000   
         C         C         1.0       0.5275775933187178  0.8132712427628349  0.7872585930295877 1.0000   
         C         C         1.0       0.5424484410827701  0.8177860022914244  0.7630832757148192 1.0000   
         C         C         1.0       0.536624320289247   0.80620385077595    0.7368478608981526 1.0000   
         C         C         1.0       0.5175212701205025  0.7898930745366851  0.7345220916458135 1.0000   
         C         C         1.0       0.577866902083732   0.8460395327931451  0.7437836839455509 1.0000   
         C         C         1.0       0.6020947378353834  0.8494957218679116  0.7367505244349889 1.0000   
         C         C         1.0       0.6080349569849951  0.8666550416965327  0.7167637032419852 1.0000   
         C         C         1.0       0.5909683206159752  0.8822286583125709  0.7058238411160171 1.0000   
         C         C         1.0       0.5673920358740432  0.878761908879752   0.7117865573333197 1.0000   
         C         C         1.0       0.5598571067774809  0.8597696862770591  0.7280809200528539 1.0000   
         C         C         1.0       0.553453374544788   0.8673612575449656  0.7927119760820974 1.0000   
         C         C         1.0       0.5557905450468117  0.886993180576036   0.8092313711215405 1.0000   
         C         C         1.0       0.5760953904663725  0.8904665387890345  0.8258019000474415 1.0000   
         C         C         1.0       0.5931482661386057  0.8727706062714495  0.8271481614159758 1.0000   
         C         C         1.0       0.5916362889137939  0.8531783255913141  0.8088397992479269 1.0000   
         C         C         1.0       0.5707771260561898  0.8495177313020386  0.7924827092343778 1.0000   
         H         H         1.0       0.612484177978379   0.6869905949530134  0.8200740939075036 1.0000   
         H         H         1.0       0.566009201235908   0.730816592712104   0.7707341731521266 1.0000   
         H         H         1.0       0.536092515056957   0.6981249429282719  0.7682339092630952 1.0000   
         H         H         1.0       0.5874660385775469  0.6532416052022956  0.8115939383633323 1.0000   
         H         H         1.0       0.5990932831327055  0.722637466073536   0.735047007643584  1.0000   
         H         H         1.0       0.6222358983356865  0.6990792200438923  0.6950807616536959 1.0000   
         H         H         1.0       0.6753478398350963  0.6833919662059409  0.7537887379589493 1.0000   
         H         H         1.0       0.6575811966282161  0.7072865995400667  0.79165033214552   1.0000   
         H         H         1.0       0.5814587029915281  0.7635501293062097  0.8230968724897069 1.0000   
         H         H         1.0       0.572632051170227   0.8035226927230776  0.8163809906215852 1.0000   
         H         H         1.0       0.5982535140314644  0.8018509104072999  0.731506521588743  1.0000   
         H         H         1.0       0.6152646060820764  0.76202710336482    0.7380753061731657 1.0000   
         H         H         1.0       0.500158403590613   0.7923871175245596  0.8044569388621003 1.0000   
         H         H         1.0       0.5315434194197911  0.8209802309440734  0.8088374958239393 1.0000   
         H         H         1.0       0.5499100650627826  0.8063506767688402  0.7214965289260711 1.0000   
         H         H         1.0       0.5162223331555008  0.778031479394236   0.7151131394553858 1.0000   
         H         H         1.0       0.6169862215724659  0.8405890809915418  0.7474113766842919 1.0000   
         H         H         1.0       0.62618647158023    0.8681859732019154  0.708129277886998  1.0000   
         H         H         1.0       0.5546516233983401  0.8912557896999487  0.7048742380230432 1.0000   
         H         H         1.0       0.540853148774377   0.8560198296648732  0.7314973856393655 1.0000   
         H         H         1.0       0.5388933708428679  0.8652331165398461  0.7782117226210453 1.0000   
         H         H         1.0       0.5423229256695153  0.9018521854805214  0.8079900206024941 1.0000   
         H         H         1.0       0.6098690223500107  0.8753847329919179  0.8384416888190066 1.0000   
         H         H         1.0       0.6072994386139562  0.8422256841744956  0.8083244847913463 1.0000   
         C         C         1.0       0.6032013879559738  0.879034413947199   0.6423936598619916 1.0000   
         C         C         1.0       0.6195979955548859  0.8602899016231391  0.6367705781042575 1.0000   
         C         C         1.0       0.613276815129469   0.8381684555937532  0.6262857104510654 1.0000   
         C         C         1.0       0.5888329058206557  0.8337452897412304  0.6225543996118309 1.0000   
         C         C         1.0       0.5728443984748732  0.8519669494497231  0.6263470330695563 1.0000   
         C         C         1.0       0.5800564001474587  0.8740891227062838  0.6362861821037795 1.0000   
         H         H         1.0       0.6378669651907799  0.8622703159095074  0.6427180211981766 1.0000   
         H         H         1.0       0.6275687901256012  0.8249061456486535  0.626573759202663  1.0000   
         H         H         1.0       0.5537478521684581  0.8495469636823154  0.6192127096261216 1.0000   
         H         H         1.0       0.5665190559474786  0.8884703075138299  0.6384092561025653 1.0000   
         C         C         1.0       0.5383013447129524  0.8096426929526446  0.6455140361413484 1.0000   
         C         C         1.0       0.5654704360100627  0.7758004281428554  0.1370231569248408 1.0000   
         C         C         1.0       0.551334450826115   0.761831609896379   0.11963235577522413          1.0000   
         C         C         1.0       0.5268352005738177  0.759225986575151   0.12545130430471696          1.0000   
         C         C         1.0       0.5061924647302911  0.7828951812472906  0.6331778482442582 1.0000   
         C         C         1.0       0.5156602578241994  0.802180771830225   0.6488065426435292 1.0000   
         C         C         1.0       0.5937326520142989  0.7797458799955437  0.1276826894295271 1.0000   
         C         C         1.0       0.6027696204253072  0.7546070516463281  0.13949432602815492          1.0000   
         C         C         1.0       0.6022267160853105  0.7336739873694286  0.12350000702025943          1.0000   
         C         C         1.0       0.6099573499722446  0.7122919006228422  0.13374562326588624          1.0000   
         C         C         1.0       0.6176411549439316  0.7105242152753368  0.16146844828296203          1.0000   
         C         C         1.0       0.6244645764771934  0.7816549020309296  0.6732250655015705 1.0000   
         C         C         1.0       0.6062459475706528  0.7934809318702812  0.6613200100845433 1.0000   
         C         C         1.0       0.5783955366847684  0.7967742599846772  0.07849046145728522          1.0000   
         C         C         1.0       0.575726023166954   0.7947573977381099  0.04960530166274979          1.0000   
         C         C         1.0       0.5920358723595989  0.780207697458355   0.03410535208622778          1.0000   
         C         C         1.0       0.6118645287150944  0.7708004405379862  0.04842733205813077          1.0000   
         C         C         1.0       0.6134767916266137  0.7725485626099665  0.0772661162577255 1.0000   
         C         C         1.0       0.5962046848625914  0.78402896480564    0.0933191968109468 1.0000   
         C         C         1.0       0.5850975333834397  0.7681298523469317  0.00441668067079326          1.0000   
         C         C         1.0       0.5531677216460186  0.7116479422988164  0.05721024470092728          1.0000   
         C         C         1.0       0.5387464385126705  0.7299574387917344  0.04734226562990207          1.0000   
         C         C         1.0       0.547338606049958   0.7452302211927099  0.027105635341289513         1.0000   
         C         C         1.0       0.5705851784610239  0.7443470033768315  0.017076218032244572         1.0000   
         C         C         1.0       0.584753716060088   0.7249850166133543  0.026598517676214906         1.0000   
         C         C         1.0       0.5754203256309743  0.7090089361158667  0.04519236770565138          1.0000   
         C         C         1.0       0.6067989840221627  0.763560772537869   0.9827999712321384 1.0000   
         C         C         1.0       0.623907342469712   0.782319047836055   0.9781931675815175 1.0000   
         C         C         1.0       0.6417175522363798  0.7795114475110507  0.9574863057521673 1.0000   
         C         C         1.0       0.6431534621301788  0.7574473347364304  0.9428349192011051 1.0000   
         C         C         1.0       0.625587301141514   0.7389198137592574  0.9467019457266908 1.0000   
         C         C         1.0       0.6076209833388432  0.7431047706134819  0.9661890597481594 1.0000   
         C         C         1.0       0.5549982161213045  0.7687901187073343  0.9655393102629772 1.0000   
         C         C         1.0       0.5399264579805397  0.7789743892887875  0.9471795118775019 1.0000   
         C         C         1.0       0.5382031372379847  0.8037898669198442  0.9467695974996165 1.0000   
         C         C         1.0       0.5536280839881557  0.8184195670808783  0.963266345401825  1.0000   
         C         C         1.0       0.5697151863951333  0.8074931406142707  0.9815023762283831 1.0000   
         C         C         1.0       0.569844966135358   0.7825897177246882  0.9832959735413305 1.0000   
         H         H         1.0       0.5443474294970395  0.8240536719628809  0.6593440292289465 1.0000   
         H         H         1.0       0.5576723023540424  0.7570058036435554  0.09963250118997768          1.0000   
         H         H         1.0       0.5161205576288349  0.7506823753632131  0.10959189565868144          1.0000   
         H         H         1.0       0.5047045829057053  0.812576453942227   0.6648305493998502 1.0000   
         H         H         1.0       0.5956935695836664  0.7306948805987701  0.10172901171446669          1.0000   
         H         H         1.0       0.608267264947225   0.6963993159466659  0.12009903999413085          1.0000   
         H         H         1.0       0.6288978739715515  0.7879447274279622  0.6969420137200901 1.0000   
         H         H         1.0       0.5976991094048675  0.8095379197395155  0.6722760618199213 1.0000   
         H         H         1.0       0.5657470053294769  0.8066392650193263  0.09155321029542618          1.0000   
         H         H         1.0       0.5599965404773918  0.8017564126108184  0.041546331951530346         1.0000   
         H         H         1.0       0.62521359721969    0.7600504646747899  0.03756681279900609          1.0000   
         H         H         1.0       0.6269182403169657  0.7622694450564199  0.08889970695419502          1.0000   
         H         H         1.0       0.5212971807112262  0.7327637893281086  0.056664095507070744         1.0000   
         H         H         1.0       0.5364600617028917  0.7599561752398806  0.020256110881203382         1.0000   
         H         H         1.0       0.6033815998159284  0.7230615710323626  0.020292339341942744         1.0000   
         H         H         1.0       0.5869768392503367  0.6966952177076245  0.055087993565198445         1.0000   
         H         H         1.0       0.6226437643576535  0.8002092206145862  0.9889936547266629 1.0000   
         H         H         1.0       0.6550320236933824  0.7940669796889894  0.9556459698783792 1.0000   
         H         H         1.0       0.6275158012496985  0.7225403628379388  0.9341695676115512 1.0000   
         H         H         1.0       0.5939129676419744  0.7296172234988669  0.9680075745000811 1.0000   
         H         H         1.0       0.5546289251926705  0.748533418669875   0.9652721380657857 1.0000   
         H         H         1.0       0.5280994759274077  0.7675381858126072  0.9369194352358693 1.0000   
         H         H         1.0       0.5499399633787261  0.8380431544894053  0.9658294611575607 1.0000   
         H         H         1.0       0.5812120074642287  0.81891698120272    0.9945505455087086 1.0000   
         C         C         1.0       0.1662071324797395  0.5806226718324841  0.8499103546079458 1.0000   
         C         C         1.0       0.17068587678557143           0.5553080577653837 0.8474564058589056 1.0000   
         C         C         1.0       0.15212725665474003           0.5388745727707793 0.8503361459705148 1.0000   
         C         C         1.0       0.12843363294962798           0.5458438494026832 0.8508096655063722 1.0000   
         C         C         1.0       0.12436009293100513           0.5706394157192394 0.8489606095174436 1.0000   
         C         C         1.0       0.1429442004634326  0.5875280667481967  0.8480080515180706 1.0000   
         H         H         1.0       0.18880167576016388           0.5471860567297502 0.842460322661856  1.0000   
         H         H         1.0       0.15842559645256318           0.5205111345630121 0.8460526596185638 1.0000   
         H         H         1.0       0.1059351558454662  0.5779911487160365  0.850014125655079  1.0000   
         H         H         1.0       0.1370192625167742  0.6055946929960624  0.8470526971798605 1.0000   
         C         C         1.0       0.07335832236437123           0.5497872040042273 0.8778438378835806 1.0000   
         C         C         1.0       0.08084877660364698           0.5313163081902352 0.8577223251707804 1.0000   
         C         C         1.0       0.06255732149408177           0.5151217358342295 0.8486564011276682 1.0000   
         C         C         1.0       0.03873792399339182           0.5202751444488304 0.8529400390186429 1.0000   
         C         C         1.0       0.03237947745988046           0.5396437420022628 0.8707501637736442 1.0000   
         C         C         1.0       0.04944240401709865           0.5549270180849966 0.8817377723792271 1.0000   
         C         C         1.0       0.10780493678458962           0.5243130990386766 0.8488789764933009 1.0000   
         C         C         1.0       0.11434471883032235           0.5020145172965491 0.8695956294575345 1.0000   
         C         C         1.0       0.11160020500676193           0.4786270322276639 0.8608476188060553 1.0000   
         C         C         1.0       0.12354723212264673           0.45992034094392636          0.8732235776434397 1.0000   
         C         C         1.0       0.13722673001980112           0.4656116744380351 0.8968660021692452 1.0000   
         C         C         1.0       0.13778424550047783           0.4884824493652545 0.9085778179189585 1.0000   
         C         C         1.0       0.1266230199144839  0.507065152121442   0.895521300528973  1.0000   
         C         C         1.0       0.09832758659392016           0.5350688533911163 0.7967137610503281 1.0000   
         C         C         1.0       0.09384317452230495           0.5287627178361596 0.7683127457948065 1.0000   
         C         C         1.0       0.10177122287770295           0.5073252697584242 0.7560837074607909 1.0000   
         C         C         1.0       0.1175245636867807  0.49524665096398657           0.7731434053438248 1.0000   
         C         C         1.0       0.12122401084633122           0.5016133147964271 0.8011535640106867 1.0000   
         C         C         1.0       0.1096966811804128  0.5208175760084189  0.8151720153276093 1.0000   
         C         C         1.0       0.09399062044106277           0.5012146358015731 0.7248942460343385 1.0000   
         C         C         1.0       0.01571118738366062           0.5098332147254593 0.7338082913773835 1.0000   
         C         C         1.0       0.02696036652153211           0.5214983358422725 0.7123144287375723 1.0000   
         C         C         1.0       0.051904812256390764          0.5189439937756859 0.7085891072137591 1.0000   
         C         C         1.0       0.06511769655690491           0.503070184224587  0.7248604253917057 1.0000   
         C         C         1.0       0.052887122732107716          0.4914620296009994 0.7460199837538991 1.0000   
         C         C         1.0       0.028523563487758974          0.49519366243390867          0.7505717241411621 1.0000   
         C         C         1.0       0.09461824167597377           0.4735508419604912 0.7105190458736449 1.0000   
         C         C         1.0       0.09311998078406147           0.4520617581607932 0.7251638122876346 1.0000   
         C         C         1.0       0.08978799826189521           0.42991582098733033          0.7104360094925516 1.0000   
         C         C         1.0       0.09126666565450825           0.42866818505324245          0.6811433507280742 1.0000   
         C         C         1.0       0.09417028510604375           0.4498765027248384 0.6671634004223747 1.0000   
         C         C         1.0       0.09542969768090881           0.471402144811993  0.6810764631085162 1.0000   
         C         C         1.0       0.13525663155530782           0.5065570681660869 0.6996563610460643 1.0000   
         C         C         1.0       0.15086662285618993           0.518370599263867  0.6830180622731629 1.0000   
         C         C         1.0       0.1472950659306385  0.5410211820878164  0.673853809232356  1.0000   
         C         C         1.0       0.12727351411488094           0.5537381309337663 0.6847573755801046 1.0000   
         C         C         1.0       0.11028864936412884           0.5407645708429664 0.7004868297098137 1.0000   
         C         C         1.0       0.11325930251822985           0.5170687695909894 0.7076838334894466 1.0000   
         H         H         1.0       0.0863381025050356  0.5625997895367798  0.8870752894794648 1.0000   
         H         H         1.0       0.06488225043183071           0.5012975574201926 0.8343209382945621 1.0000   
         H         H         1.0       0.025323426983694164          0.5081519818519363 0.8450458644790154 1.0000   
         H         H         1.0       0.046224306021730444          0.5713791721000564 0.8937900491063915 1.0000   
         H         H         1.0       0.10236054697628205           0.4761374148678491 0.8406992781620043 1.0000   
         H         H         1.0       0.12400623403498434           0.44192670585014787          0.8653128450596087 1.0000   
         H         H         1.0       0.14769075229810208           0.4922833106774789 0.9280461124693762 1.0000   
         H         H         1.0       0.1289800744916819  0.5256987191384874  0.9048142402309238 1.0000   
         H         H         1.0       0.08936753311065448           0.5510655189837032 0.8042795749875028 1.0000   
         H         H         1.0       0.08249154781531831           0.5404418144644367 0.756183981223105  1.0000   
         H         H         1.0       0.12740504226677277           0.4814713642787671 0.7631883629828131 1.0000   
         H         H         1.0       0.13412882878279805           0.4910193333875856 0.8117268750996464 1.0000   
         H         H         1.0       0.01844122602699194           0.5346819554947263 0.7007052596184831 1.0000   
         H         H         1.0       0.06134662469387164           0.5311196250738713 0.694263950702735  1.0000   
         H         H         1.0       0.06222990224249525           0.4823711816225032 0.7629208325614704 1.0000   
         H         H         1.0       0.019712198688472293          0.484467977331464  0.7671380228870012 1.0000   
         H         H         1.0       0.09118785931229878           0.45097974889112474          0.7473884353164866 1.0000   
         H         H         1.0       0.08808347478460776           0.41275340041506875          0.7213870890202553 1.0000   
         H         H         1.0       0.09480355375323923           0.45038877983747266          0.6450344281558992 1.0000   
         H         H         1.0       0.09633653422082666           0.4861269343772382 0.6674829746101916 1.0000   
         H         H         1.0       0.139300549671292   0.4875638628256058  0.7046736070015812 1.0000   
         H         H         1.0       0.16548442133443866           0.5075913717154585 0.6755309616822932 1.0000   
         H         H         1.0       0.12372027316606456           0.5711858114632612 0.6768858913678063 1.0000   
         H         H         1.0       0.09479399690537185           0.5508836183717165 0.7055781600710163 1.0000   
         C         C         1.0       0.17728227112196904           0.5788838394341163 0.08137265870189458          1.0000   
         C         C         1.0       0.17840175570700062           0.5545692325507791 0.08090023183802009          1.0000   
         C         C         1.0       0.15941870168887898           0.5414869151050818 0.08885835217983185          1.0000   
         C         C         1.0       0.13771832128695352           0.5510983749406555 0.09783003612194574          1.0000   
         C         C         1.0       0.13649222536353808           0.5764908857282632 0.10054309410753093          1.0000   
         C         C         1.0       0.15605191129018167           0.5901087742387056 0.09145376198076605          1.0000   
         H         H         1.0       0.19388998631987328           0.5450853398322121 0.07526243193825732          1.0000   
         H         H         1.0       0.16204946969866865           0.5211740436762241 0.08727107045300087          1.0000   
         H         H         1.0       0.11985200747225591           0.5848377604705706 0.10711342069586438          1.0000   
         H         H         1.0       0.1556483932337918  0.6086149913287516  0.0927406479779489 1.0000   
         C         C         1.0       0.07505826718430253           0.5312571185122209 0.12963726801966247          1.0000   
         C         C         1.0       0.091087428919388   0.5414694202960046  0.10894580609443638          1.0000   
         C         C         1.0       0.08151245367307636           0.5502645741082547 0.0851666084256042 1.0000   
         C         C         1.0       0.05763338780249261           0.5472266027767196 0.0808031936874043 1.0000   
         C         C         1.0       0.04192679025886292           0.5385221362515715 0.10012584933997659          1.0000   
         C         C         1.0       0.05117641927799066           0.5308583043913746 0.12560425822274368          1.0000   
         C         C         1.0       0.11837585119350352           0.5319296398132003 0.10835853363002035          1.0000   
         C         C         1.0       0.10184075157473657           0.5004748260493298 0.5833969481908494 1.0000   
         C         C         1.0       0.1374869784287479  0.5054446459451671  0.14616790187268225          1.0000   
         C         C         1.0       0.14387717023544053           0.5007557587738031 0.5938747110169382 1.0000   
         C         C         1.0       0.1424819354401311  0.5214534111451147  0.6106516321568094 1.0000   
         C         C         1.0       0.11988883448339145           0.5318712338835799 0.6128512517899107 1.0000   
         C         C         1.0       0.09988972371928273           0.5223229002830561 0.599755182065235  1.0000   
         C         C         1.0       0.1165131195473781  0.5108836067812441  0.05899948663895449          1.0000   
         C         C         1.0       0.10977240043520572           0.4934482461108351 0.04018835229449147          1.0000   
         C         C         1.0       0.0962275663601515  0.47268296586722597           0.04861484578318387          1.0000   
         C         C         1.0       0.09345659238457138           0.4699351004452251 0.0782834051707717 1.0000   
         C         C         1.0       0.10334409882985196           0.48622765587282724          0.09709682884205151          1.0000   
         C         C         1.0       0.11320612967875386           0.5085118275756818 0.08833892081443984          1.0000   
         C         C         1.0       0.08325088431610972           0.4570747772150305 0.02274419817652018          1.0000   
         C         C         1.0       0.027657230028735214          0.5109468351408897 0.013915349413739841         1.0000   
         C         C         1.0       0.0479180120193079  0.5123379009714915  0.9979505302454531 1.0000   
         C         C         1.0       0.06440527620837022           0.4938793077263038 0.9988349919766959 1.0000   
         C         C         1.0       0.06213450872879145           0.47506620559545365          0.017662423684741135         1.0000   
         C         C         1.0       0.04123765432344628           0.47453506503850496          0.03405606042285103          1.0000   
         C         C         1.0       0.025045554520233937          0.49299283299486474          0.03370042681284846          1.0000   
         C         C         1.0       0.07730132654692534           0.43009483813025556          0.031409368866933685         1.0000   
         C         C         1.0       0.09364767359449466           0.4176239787408294 0.04672127953738325          1.0000   
         C         C         1.0       0.09347577214665526           0.39239588900150796          0.0483824582767749 1.0000   
         C         C         1.0       0.07398167501450459           0.3799586176765168 0.037124023256040584         1.0000   
         C         C         1.0       0.05599188169210123           0.39309857925324815          0.024154855846226342         1.0000   
         C         C         1.0       0.0577795505168881  0.41762889196794234           0.021423329314667283         1.0000   
         C         C         1.0       0.09020327602703171           0.4436891423328551 0.9707928471874229 1.0000   
         C         C         1.0       0.10512432744009037           0.4370231415205383 0.9489719678644806 1.0000   
         C         C         1.0       0.1298019308630419  0.4355572965236387  0.9519689334706252 1.0000   
         C         C         1.0       0.13944822014389166           0.44101504417373233          0.9790288878642438 1.0000   
         C         C         1.0       0.1253840951101822  0.4483182852154031  0.000562873053801205         1.0000   
         C         C         1.0       0.09998154405852899           0.4496744194132655 0.9964585506940179 1.0000   
         H         H         1.0       0.07378850767218159           0.483310080009254  0.6277045898825904 1.0000   
         H         H         1.0       0.09342001414830345           0.5581889840771332 0.06987910197359493          1.0000   
         H         H         1.0       0.05047568282102066           0.5523319210600973 0.06054111680985064          1.0000   
         H         H         1.0       0.03903237675188764           0.4772271890141638 0.6552538900369573 1.0000   
         H         H         1.0       0.14133547211371014           0.49184655541820493          0.13060911847679457          1.0000   
         H         H         1.0       0.16008896134188247           0.49221756348915224          0.5890066277131532 1.0000   
         H         H         1.0       0.11698499046275321           0.5481632786831234 0.625498652674378  1.0000   
         H         H         1.0       0.0841203002925612  0.5326710324399792  0.6001844666658238 1.0000   
         H         H         1.0       0.12410692141734511           0.5268224569587758 0.04981447053466814          1.0000   
         H         H         1.0       0.11346031656940034           0.49455257023040816          0.017892069989470016         1.0000   
         H         H         1.0       0.08153600252891358           0.45667151458024285          0.0861371750053419 1.0000   
         H         H         1.0       0.09772221702676154           0.4843883521798487 0.1198315459741357 1.0000   
         H         H         1.0       0.051259472010710905          0.5282007861346582 0.9855900572484407 1.0000   
         H         H         1.0       0.0800983971149809  0.4951877697116996  0.985513087849337  1.0000   
         H         H         1.0       0.03977874439081819           0.4624362614044816 0.05078195716522527          1.0000   
         H         H         1.0       0.009532268248632736          0.49410622193074677          0.04733826566756183          1.0000   
         H         H         1.0       0.10929070814550879           0.4276036415859271 0.05401579964441816          1.0000   
         H         H         1.0       0.10816785802440587           0.3834476169153098 0.0590006086087278 1.0000   
         H         H         1.0       0.04033693338822686           0.3848054630385235 0.013368273296013422         1.0000   
         H         H         1.0       0.04562816123149438           0.4254906908138228 0.007685757238523161         1.0000   
         H         H         1.0       0.07145920306551412           0.44201491599764575          0.9681122355880926 1.0000   
         H         H         1.0       0.09604687976471382           0.43161038858784856          0.9290182860081845 1.0000   
         H         H         1.0       0.15774853322923743           0.44204426778829975          0.9819772990637099 1.0000   
         H         H         1.0       0.1331438406655207  0.45263237639124687           0.021318892785550325         1.0000   
         C         C         1.0       0.8971125551156446  0.6532876321568531  0.7891528088155573 1.0000   
         C         C         1.0       0.9014343625262289  0.6565552925557929  0.7613046762882293 1.0000   
         C         C         1.0       0.9209759901955901  0.6468556050762352  0.7472938444200306 1.0000   
         C         C         1.0       0.9369463050714874  0.6330726416151274  0.7623383889763228 1.0000   
         C         C         1.0       0.9331520697872961  0.6325293081048842  0.7919851195622395 1.0000   
         C         C         1.0       0.9137570228655061  0.6403208763121865  0.8045837243189983 1.0000   
         H         H         1.0       0.889650126107686   0.6667935664268799  0.7489966675155691 1.0000   
         H         H         1.0       0.9229766330749974  0.6487118237292073  0.7240588640254325 1.0000   
         H         H         1.0       0.944536143763889   0.6215695366431346  0.8053503020114835 1.0000   
         H         H         1.0       0.9112917234644299  0.6380208178540985  0.8280366838533946 1.0000   
         C         C         1.0       0.9916203239125876  0.58844675544135    0.7587773468491895 1.0000   
         C         C         1.0       0.9687221114604689  0.5965566956579472  0.7574894028179511 1.0000   
         C         C         1.0       0.9497618200578583  0.5794984073975082  0.7579354254313784 1.0000   
         C         C         1.0       0.95462598047714    0.5561696379184095  0.7635353298739852 1.0000   
         C         C         1.0       0.9767059716073739  0.5485834469029685  0.7661744412308403 1.0000   
         C         C         1.0       0.9962859603201298  0.5641733856278177  0.7614393646606273 1.0000   
         C         C         1.0       0.9610301958744837  0.6238230439272943  0.7487453486657726 1.0000   
         C         C         1.0       0.9784520673150684  0.645297236839034   0.7594610277845474 1.0000   
         C         C         1.0       0.9927293382532395  0.6459288198244071  0.7829676583795199 1.0000   
         C         C         1.0       0.0035906990671350503         0.6660641567314423 0.7946718534175131 1.0000   
         C         C         1.0       0.9975759172631984  0.6885196563901533  0.7824616249706994 1.0000   
         C         C         1.0       0.9862840218677311  0.6879581591530649  0.7567502493231953 1.0000   
         C         C         1.0       0.9777474049930133  0.6669900744101298  0.7445846995639925 1.0000   
         C         C         1.0       0.9439525490255788  0.6106675165480141  0.6994160696552014 1.0000   
         C         C         1.0       0.9466698420323806  0.6037360692278168  0.6715484472066362 1.0000   
         C         C         1.0       0.9679393344713497  0.6053061724549239  0.6571135619998387 1.0000   
         C         C         1.0       0.9871417148638568  0.6123284672909803  0.6736623534336293 1.0000   
         C         C         1.0       0.9846739001454551  0.6206538678589523  0.7004390789099874 1.0000   
         C         C         1.0       0.9631130509340478  0.6195449808335901  0.7146991145159427 1.0000   
         C         C         1.0       0.9641692898995634  0.6442583426382567  0.08426692473564268          1.0000   
         C         C         1.0       0.9896673894205842  0.5715168865619126  0.09406050333291782          1.0000   
         C         C         1.0       0.9668553321406481  0.5742478735324518  0.08149794700763491          1.0000   
         C         C         1.0       0.9585144692126677  0.5974325815390364  0.07670688578866258          1.0000   
         C         C         1.0       0.9739668197124456  0.6171974959243686  0.08211420653274137          1.0000   
         C         C         1.0       0.99772842664625    0.6126351340047279  0.09217715000002857          1.0000   
         C         C         1.0       0.005123241474879414          0.5894825906561314 0.09516523141314348          1.0000   
         C         C         1.0       0.9813299068649971  0.6662823464153661  0.07549724951246373          1.0000   
         C         C         1.0       0.9741137208875216  0.6904738293367869  0.08082051012121094          1.0000   
         C         C         1.0       0.9849327729214202  0.708667509037187   0.0667385056843246 1.0000   
         C         C         1.0       0.0012645917481910462         0.7048365445251352 0.045286543796816625         1.0000   
         C         C         1.0       0.009291146288957108          0.6807734838947551 0.041247565241528505         1.0000   
         C         C         1.0       0.9998173973187511  0.6623096671145673  0.05586469479127287          1.0000   
         C         C         1.0       0.9403275735917915  0.6414623042537222  0.03797942561977741          1.0000   
         C         C         1.0       0.9208644671285592  0.6485105805076243  0.021765786708772605         1.0000   
         C         C         1.0       0.9034687178435493  0.663239385312323   0.03285686316579173          1.0000   
         C         C         1.0       0.9041543313899207  0.6689650289989065  0.060659514257978664         1.0000   
         C         C         1.0       0.9223073098940633  0.6624417273011575  0.07659526399617489          1.0000   
         C         C         1.0       0.9417940722702252  0.6490920321241263  0.06565214641210848          1.0000   
         H         H         1.0       0.006636943973386655          0.6003483398042783 0.7524418605261819 1.0000   
         H         H         1.0       0.9319431689209969  0.5866977861250751  0.7566104101572501 1.0000   
         H         H         1.0       0.9413003978474651  0.5436725244925882  0.7578311276517353 1.0000   
         H         H         1.0       0.013376222506302105          0.5566492670640001 0.7585673678061439 1.0000   
         H         H         1.0       0.9967365556899783  0.6278485075620039  0.7937052201152914 1.0000   
         H         H         1.0       0.013069750534360436          0.6660456881097178 0.8141840116964049 1.0000   
         H         H         1.0       0.9822131519785742  0.7037808902111231  0.7447663808506371 1.0000   
         H         H         1.0       0.9696120929211491  0.6664703310763833  0.7235650834152594 1.0000   
         H         H         1.0       0.9268153053267443  0.6112471513550954  0.7077925475672686 1.0000   
         H         H         1.0       0.9301279971701051  0.5982136232434349  0.6593486774458516 1.0000   
         H         H         1.0       0.005055656921727492          0.6137005537597026 0.6634090619343964 1.0000   
         H         H         1.0       0.0013299683240119986         0.6260183920383372 0.7103012537281296 1.0000   
         H         H         1.0       0.9541143478115371  0.5587363331150468  0.07911705512994516          1.0000   
         H         H         1.0       0.9407789080154524  0.599806137523592   0.06754058425643827          1.0000   
         H         H         1.0       0.009459753885361799          0.6259274811433283 0.10008620245696731          1.0000   
         H         H         1.0       0.021226352114912084          0.5862903911423146 0.10623622330308269          1.0000   
         H         H         1.0       0.960487639458563   0.6941309521720456  0.0950923145024225 1.0000   
         H         H         1.0       0.9778856132061     0.7268324998875539  0.0690243651793756 1.0000   
         H         H         1.0       0.02224876097043893           0.675597772614483  0.02612824492925858          1.0000   
         H         H         1.0       0.0004728588831857117         0.6449275012457176 0.0463695432586666 1.0000   
         H         H         1.0       0.9558634567882087  0.6332408151452478  0.028156827692462416         1.0000   
         H         H         1.0       0.9194744241945296  0.6400904888652776  0.9996381335704522 1.0000   
         H         H         1.0       0.9126910046563952  0.6372618246796762  0.577599000363193  1.0000   
         H         H         1.0       0.9387893588925682  0.6341013019147376  0.6157765760380196 1.0000   
         C         C         1.0       0.9862567303021497  0.7067888405876179  0.9811751636225885 1.0000   
         C         C         1.0       0.0021629727049932157         0.7051873749242898 0.9594747243029851 1.0000   
         C         C         1.0       0.004742545292785172          0.6839678134877082 0.9437725169224906 1.0000   
         C         C         1.0       0.9920609174277545  0.6631235500409008  0.9503804853126675 1.0000   
         C         C         1.0       0.9735898821049339  0.6668642275351289  0.9704272713899501 1.0000   
         C         C         1.0       0.9703530317816716  0.6887286198109067  0.9853355000228132 1.0000   
         H         H         1.0       0.014677801593369733          0.7210286173466384 0.9576764184247788 1.0000   
         H         H         1.0       0.019296354792218695          0.6836930088618721 0.9276330407396349 1.0000   
         H         H         1.0       0.9608283971435079  0.6528715928958627  0.9750302309515538 1.0000   
         H         H         1.0       0.9564595409869056  0.6910026862623296  9.372744512492481e-05        1.0000   
         C         C         1.0       0.00677071228423598           0.6212019836932221 0.9890165432509137 1.0000   
         C         C         1.0       0.005374186476831744          0.6173795395066081 0.959811385054774  1.0000   
         C         C         1.0       0.007591406868896922          0.5936569156364223 0.9498072392583603 1.0000   
         C         C         1.0       0.012219101150706457          0.5751158490051437 0.9676632295369135 1.0000   
         C         C         1.0       0.012908935190644621          0.5791545135396917 0.9964065804365893 1.0000   
         C         C         1.0       0.01197132321850991           0.6031095437227381 0.006962255375696058         1.0000   
         C         C         1.0       0.9940436699075808  0.6355272330479006  0.9372829448005768 1.0000   
         C         C         1.0       0.014830680536645602          0.6343259647455628 0.9104669770445947 1.0000   
         C         C         1.0       0.010914034018243202          0.6229108811364367 0.8846821746971998 1.0000   
         C         C         1.0       0.02829270871913847           0.6199611064833026 0.8647384116552979 1.0000   
         C         C         1.0       0.05093064036036532           0.6274255915836723 0.8696108364989237 1.0000   
         C         C         1.0       0.0557285249700441  0.6375242589549732  0.895384375773521  1.0000   
         C         C         1.0       0.038310656039787006          0.6412292253468265 0.9157932017156035 1.0000   
         C         C         1.0       0.9526755236074497  0.6131804980787207  0.9464695297023052 1.0000   
         C         C         1.0       0.9315776605977194  0.6049235049503524  0.9370913340386667 1.0000   
         C         C         1.0       0.9221911906774886  0.6118927273719017  0.911036593461722  1.0000   
         C         C         1.0       0.9359251906906507  0.6283210306598773  0.8960640898929023 1.0000   
         C         C         1.0       0.9577629792168838  0.638135910703472   0.9066465394257321 1.0000   
         C         C         1.0       0.9677012699519503  0.6283348740451332  0.9300641526666463 1.0000   
         C         C         1.0       0.9015648920718977  0.5951227418029154  0.8973916123008175 1.0000   
         C         C         1.0       0.9602099410771989  0.5486018827049719  0.8627815455632956 1.0000   
         C         C         1.0       0.9470734313156068  0.5408101801142081  0.885525691773077  1.0000   
         C         C         1.0       0.9263442553041373  0.5524412344383423  0.8936903754388374 1.0000   
         C         C         1.0       0.9189505668373965  0.5744640739055564  0.8816387686163176 1.0000   
         C         C         1.0       0.9334622560674652  0.5819269446954343  0.8584771732590412 1.0000   
         C         C         1.0       0.9536039075922984  0.5696182886500558  0.849756674375161  1.0000   
         C         C         1.0       0.8851346954286655  0.6079641084446772  0.875861335029983  1.0000   
         C         C         1.0       0.8763469234959381  0.6306181465597646  0.8839142450452017 1.0000   
         C         C         1.0       0.8657711066540045  0.6438090705136019  0.8654299158347322 1.0000   
         C         C         1.0       0.8596275556975601  0.6332718668817657  0.8391257695200727 1.0000   
         C         C         1.0       0.8630984289679815  0.6102628828257369  0.8326069544431395 1.0000   
         C         C         1.0       0.8744340756625835  0.5961696968245351  0.8526499536729253 1.0000   
         C         C         1.0       0.8683285558384132  0.5628080949014163  0.9098727076686812 1.0000   
         C         C         1.0       0.848784664963067   0.5553097064215973  0.9268179484546913 1.0000   
         C         C         1.0       0.8415398594995027  0.5685505870402229  0.9496643545866991 1.0000   
         C         C         1.0       0.854468357608416   0.5888864491401434  0.956402265718015  1.0000   
         C         C         1.0       0.873505903344535   0.5964832044111182  0.9410113237860392 1.0000   
         C         C         1.0       0.8809699274204152  0.5836690330015905  0.9171752644743482 1.0000   
         H         H         1.0       0.0005475320057755084         0.6385668655764848 0.9965370208850438 1.0000   
         H         H         1.0       0.004176630267527459          0.5883427801248108 0.9287612566816434 1.0000   
         H         H         1.0       0.01674228078568807           0.5578513439302301 0.9585614006378166 1.0000   
         H         H         1.0       0.01441745966226371           0.6057351786423585 0.02986843672055617          1.0000   
         H         H         1.0       0.9929955421638861  0.6154731274089149  0.8800253872175714 1.0000   
         H         H         1.0       0.023493055987438227          0.610558676205785  0.8457417999990673 1.0000   
         H         H         1.0       0.07509430213433976           0.6436755770585826 0.8979718900655361 1.0000   
         H         H         1.0       0.045049141555657535          0.6465835462400857 0.9364838648333788 1.0000   
         H         H         1.0       0.9609041182951285  0.607627919264308   0.9667372606268124 1.0000   
         H         H         1.0       0.9233188271801116  0.592544552945173   0.9513627889380186 1.0000   
         H         H         1.0       0.928757360492187   0.6357341478434515  0.8767078764469849 1.0000   
         H         H         1.0       0.968089579301037   0.6498265659811765  0.8923329773538816 1.0000   
         H         H         1.0       0.9548934165299178  0.5256759685686947  0.8966476718766602 1.0000   
         H         H         1.0       0.9164513471456011  0.5458016595208309  0.9131330362750163 1.0000   
         H         H         1.0       0.9293037337343696  0.5986202236304733  0.8483386838018458 1.0000   
         H         H         1.0       0.9631256124872424  0.5790962085002137  0.8314049711122594 1.0000   
         H         H         1.0       0.8810296379222242  0.6416359277761283  0.9022895133144848 1.0000   
         H         H         1.0       0.8590419485029597  0.6623554275440189  0.8685821812111806 1.0000   
         H         H         1.0       0.8588963418282988  0.602129896572265   0.8125749964688171 1.0000   
         H         H         1.0       0.8757133840122434  0.5760078222750754  0.8470240495210095 1.0000   
         H         H         1.0       0.8728348638263554  0.5529522407130204  0.8908104110835149 1.0000   
         H         H         1.0       0.837300535979821   0.5423266724628599  0.9156694433165468 1.0000   
         H         H         1.0       0.8490893996738208  0.6020726037001057  0.972596144524575  1.0000   
         H         H         1.0       0.8825509637214621  0.6133124919181611  0.9475607795327149 1.0000   
         C         C         1.0       0.2091364328898298  0.6297712771038467  0.8111789699167217 1.0000   
         C         C         1.0       0.22129244287927283           0.6215456421203482 0.7885122137765411 1.0000   
         C         C         1.0       0.24013378637415744           0.6356741506266024 0.7777937614064662 1.0000   
         C         C         1.0       0.24838422299486326           0.655960925263258  0.7918655842060547 1.0000   
         C         C         1.0       0.23627406088748304           0.6628416252091853 0.8168607444344312 1.0000   
         C         C         1.0       0.2172119519978721  0.6496712510978117  0.8264522953776204 1.0000   
         H         H         1.0       0.21849485435604263           0.6027036674089508 0.7824189542264449 1.0000   
         H         H         1.0       0.24912573262009405           0.628266611010729  0.7594322659936262 1.0000   
         H         H         1.0       0.23928438413441738           0.6800978203603295 0.8286680003797947 1.0000   
         H         H         1.0       0.20441766824622717           0.658007750772677  0.8421531162969748 1.0000   
         C         C         1.0       0.23916211377693633           0.6825979675532307 0.7392455695325895 1.0000   
         C         C         1.0       0.25293711940479036           0.6903328433575183 0.7627351286334969 1.0000   
         C         C         1.0       0.24885984380395604           0.7131595655133534 0.7730378273998305 1.0000   
         C         C         1.0       0.23195383904377465           0.7276698386584858 0.7595020829647307 1.0000   
         C         C         1.0       0.2209035221589727  0.7194057734789049  0.7346614528604634 1.0000   
         C         C         1.0       0.22464222870563236           0.6962872580052196 0.7242644242815303 1.0000   
         C         C         1.0       0.27050780941138985           0.6724515719808687 0.7789246801781737 1.0000   
         C         C         1.0       0.2888834302905205  0.6585027697458451  0.7585370296828066 1.0000   
         C         C         1.0       0.2952648311299798  0.6345266850110599  0.7645098367561183 1.0000   
         C         C         1.0       0.3098369846267186  0.6207407159537499  0.7467851075668513 1.0000   
         C         C         1.0       0.3166005887298768  0.6306693225131427  0.72101010447432   1.0000   
         C         C         1.0       0.31172516692793145           0.6540084539528742 0.7153365765151963 1.0000   
         C         C         1.0       0.2985666162440191  0.6682799639351973  0.7338807355965512 1.0000   
         C         C         1.0       0.29339259812109153           0.670021217986171  0.82655955899914   1.0000   
         C         C         1.0       0.30568862960027776           0.6819578524415388 0.8478298656082158 1.0000   
         C         C         1.0       0.3159641488107669  0.7041972350018149  0.8434554735564638 1.0000   
         C         C         1.0       0.3154689477343444  0.7140120837132721  0.8170025972987915 1.0000   
         C         C         1.0       0.30182995589386713           0.7023803884283836 0.7968823284932495 1.0000   
         C         C         1.0       0.288819965552578   0.6819500439223081  0.8018472559621941 1.0000   
         C         C         1.0       0.3222094652785017  0.7199785842655163  0.8702049736810934 1.0000   
         C         C         1.0       0.24860280562980436           0.7394553288941396 0.8694280049097637 1.0000   
         C         C         1.0       0.2559127930040626  0.7223445586656534  0.8888717226340517 1.0000   
         C         C         1.0       0.28029682083202256           0.7185162773288114 0.8921967286413642 1.0000   
         C         C         1.0       0.2972072951393243  0.7316366271923712  0.8766365938419584 1.0000   
         C         C         1.0       0.288868972024023   0.7509322935437943  0.8605895502264416 1.0000   
         C         C         1.0       0.26557001392244234           0.7541943898886437 0.8547982141855318 1.0000   
         C         C         1.0       0.3430053035705448  0.7383469697783257  0.8663026732511446 1.0000   
         C         C         1.0       0.3618705485221603  0.7337442206066608  0.8461326716899699 1.0000   
         C         C         1.0       0.38183742265930426           0.7485455794421947 0.846293493628461  1.0000   
         C         C         1.0       0.3847841436169049  0.7673387741550208  0.8658372031163851 1.0000   
         C         C         1.0       0.36583791872009697           0.7729367192358576 0.8838418125834407 1.0000   
         C         C         1.0       0.34575551608111793           0.7580866571818884 0.8855031538473407 1.0000   
         C         C         1.0       0.3296006552186027  0.7115589183381836  0.9246709364869696 1.0000   
         C         C         1.0       0.3412541662024035  0.7000080032184621  0.9466408934069798 1.0000   
         C         C         1.0       0.35867915438114445           0.6829317723507141 0.9395192550249004 1.0000   
         C         C         1.0       0.36371144869393135           0.6781972100152192 0.9117530817243485 1.0000   
         C         C         1.0       0.34948907134772844           0.6877907126112407 0.8908682184004503 1.0000   
         C         C         1.0       0.3333514648209378  0.7061242570784798  0.8958139308765691 1.0000   
         H         H         1.0       0.24124266231553182           0.6642707850693245 0.7311640585629733 1.0000   
         H         H         1.0       0.2596920588115815  0.7194095239424191  0.7916152892025511 1.0000   
         H         H         1.0       0.22694973142398742           0.7443269068221321 0.7700131164885423 1.0000   
         H         H         1.0       0.21722867926493425           0.6896830719669302 0.7057269775391869 1.0000   
         H         H         1.0       0.287269571269481   0.6270092639182672  0.7828684875847153 1.0000   
         H         H         1.0       0.3140543386208229  0.6017160345952512  0.7538375805994952 1.0000   
         H         H         1.0       0.31885751694098186           0.6624278239879149 0.6965294946806754 1.0000   
         H         H         1.0       0.2961096252386667  0.6863274210235694  0.7273193523206902 1.0000   
         H         H         1.0       0.28476625971484004           0.6526151226487855 0.832156633457389  1.0000   
         H         H         1.0       0.3051927516281449  0.6715221972533724  0.8671688111883011 1.0000   
         H         H         1.0       0.32137102621653424           0.7310636251551759 0.8096357784956404 1.0000   
         H         H         1.0       0.29974060426401045           0.7118550143278138 0.7754574138060535 1.0000   
         H         H         1.0       0.2433850557542112  0.7118263921489772  0.9009279556714841 1.0000   
         H         H         1.0       0.28586124201292307           0.7028942633547257 0.9028586740519059 1.0000   
         H         H         1.0       0.3015929967746952  0.7616247114272371  0.8505464960046069 1.0000   
         H         H         1.0       0.26146931963871245           0.7675204435029703 0.8396304516876916 1.0000   
         H         H         1.0       0.3611934583277666  0.7189711612291522  0.8309120927300252 1.0000   
         H         H         1.0       0.3974149539464928  0.7453444067747136  0.8344530253074628 1.0000   
         H         H         1.0       0.3686793876984726  0.7879475212315401  0.8988642632714342 1.0000   
         H         H         1.0       0.3317072591989464  0.7627524023795533  0.9011872875624776 1.0000   
         H         H         1.0       0.31833998181599515           0.725103370847239  0.9313526319358383 1.0000   
         H         H         1.0       0.33761750039163296           0.7044704804658641 0.9678523126652246 1.0000   
         H         H         1.0       0.3768890426159831  0.6658432413849062  0.9070940473881907 1.0000   
         H         H         1.0       0.35463885010029544           0.6836052433779012 0.8685325508871257 1.0000   
         C         C         1.0       0.2200219034528911  0.606761849024004   0.022700467382694933         1.0000   
         C         C         1.0       0.2435622515710036  0.5968924398796369  0.020522139401881967         1.0000   
         C         C         1.0       0.26253939430120954           0.6132409259168617 0.018813403542123908         1.0000   
         C         C         1.0       0.25796694396579095           0.6377363047577952 0.017508538299924936         1.0000   
         C         C         1.0       0.23500989139125156           0.6459706569934032 0.015101774088874365         1.0000   
         C         C         1.0       0.21555336034696096           0.6305240905143302 0.01581754671303126          1.0000   
         H         H         1.0       0.24676206121718008           0.5786196502354706 0.02528675903558253          1.0000   
         H         H         1.0       0.2810564359064551  0.6082980097285446  0.020715810629148068         1.0000   
         H         H         1.0       0.2288411793141356  0.6641746510307769  0.0138181100484851 1.0000   
         H         H         1.0       0.19723657590977808           0.6374229464491253 0.015842939904531228         1.0000   
         C         C         1.0       0.2616330461571498  0.6814804269050218  0.9765789935880935 1.0000   
         C         C         1.0       0.27308773935138564           0.6819624068060167 0.0027797985590467533        1.0000   
         C         C         1.0       0.2794238353938125  0.7049324680137411  0.01357879724965727          1.0000   
         C         C         1.0       0.27010481135147973           0.7247431490463325 0.0015147734944993552        1.0000   
         C         C         1.0       0.2576595223351095  0.7244944412771464  0.9762370952836497 1.0000   
         C         C         1.0       0.25555071856082734           0.7027131275465206 0.9624877955268726 1.0000   
         C         C         1.0       0.2793344551948893  0.6578409720284744  0.021280517846972158         1.0000   
         C         C         1.0       0.3040835904630078  0.651577061335087   0.006887276605113346         1.0000   
         C         C         1.0       0.32480780472483256           0.6582756285142579 0.02110525767361615          1.0000   
         C         C         1.0       0.34759731103000835           0.6539834871643841 0.009751570256643305         1.0000   
         C         C         1.0       0.34946345199124973           0.6447092501770808 0.9826558741084266 1.0000   
         C         C         1.0       0.32948643643437725           0.6377796266325788 0.9681906276621668 1.0000   
         C         C         1.0       0.3073057634124008  0.6395241907420791  0.9810261126745181 1.0000   
         C         C         1.0       0.26129656881416097           0.6757317951067714 0.0680202725807939 1.0000   
         C         C         1.0       0.22636797461070182           0.6625261219637618 0.5725507848848244 1.0000   
         C         C         1.0       0.23785953125751505           0.6469230491863788 0.5899145244507854 1.0000   
         C         C         1.0       0.24000096923655073           0.6231418654629518 0.5782981775985436 1.0000   
         C         C         1.0       0.29247841269910696           0.6476369698203382 0.07370143461429146          1.0000   
         C         C         1.0       0.2788588323034402  0.6607818749286314  0.05584391220104057          1.0000   
         C         C         1.0       0.24213485456271297           0.6531370771313028 0.6235095425665619 1.0000   
         C         C         1.0       0.165405700026225   0.6414726285803701  0.6357778131946955 1.0000   
         C         C         1.0       0.18052820935066105           0.6220959089883359 0.6391201406932628 1.0000   
         C         C         1.0       0.20479484297332465           0.6262378771227808 0.6379528445681347 1.0000   
         C         C         1.0       0.21501672868471056           0.6493531097557665 0.6346553185696561 1.0000   
         C         C         1.0       0.19887744496463639           0.6680810139452826 0.632985412041951  1.0000   
         C         C         1.0       0.17475565236057242           0.6645347758844918 0.6329631825605554 1.0000   
         C         C         1.0       0.2526869347005708  0.6796712188311944  0.6298257541486351 1.0000   
         C         C         1.0       0.2655690262122833  0.6927325751049397  0.6098201049453403 1.0000   
         C         C         1.0       0.2730050552067979  0.7159994840161725  0.6149552296964566 1.0000   
         C         C         1.0       0.2687364662572221  0.7272283195924873  0.6410535007109842 1.0000   
         C         C         1.0       0.2577584324371493  0.7143636957518503  0.6630962961384538 1.0000   
         C         C         1.0       0.24983398165969173           0.6921085725071989 0.6567322237752818 1.0000   
         C         C         1.0       0.2824486449695621  0.6302258574026297  0.625728268670517  1.0000   
         C         C         1.0       0.3005436837324026  0.6196868887688262  0.6390600431040605 1.0000   
         C         C         1.0       0.2960108998334281  0.6105887530065914  0.6656459247898401 1.0000   
         C         C         1.0       0.27382569055749373           0.6139842878358176 0.6785932765289607 1.0000   
         C         C         1.0       0.2572545942435575  0.628203776442072   0.6672757012594064 1.0000   
         C         C         1.0       0.26162439144679206           0.6371376258499489 0.6396157357135589 1.0000   
         H         H         1.0       0.26063782620894266           0.6636583711658047 0.965837542171485  1.0000   
         H         H         1.0       0.2876131562101368  0.7091321824277812  0.034976664965036486         1.0000   
         H         H         1.0       0.27196309851557887           0.7415689341249662 0.011965783489843451         1.0000   
         H         H         1.0       0.24788958293742705           0.7005635191982139 0.9427220014713317 1.0000   
         H         H         1.0       0.3251604378768349  0.6684479009895344  0.0415728639847337 1.0000   
         H         H         1.0       0.36251334059927787           0.6647704117796782 0.020644904287027366         1.0000   
         H         H         1.0       0.33009879685660126           0.6327522597814274 0.9462374762391992 1.0000   
         H         H         1.0       0.2916091685178434  0.6346684841183727  0.9715523808808165 1.0000   
         H         H         1.0       0.2494864561352144  0.6862847503585927  0.05492194025420716          1.0000   
         H         H         1.0       0.2215297372592696  0.6809663739372431  0.5784052694578585 1.0000   
         H         H         1.0       0.25005018970977355           0.6095599839359023 0.591519385508179  1.0000   
         H         H         1.0       0.30484645357320694           0.6349612817262353 0.06466981642158864          1.0000   
         H         H         1.0       0.1741911668683641  0.6021742647256864  0.6363128312092577 1.0000   
         H         H         1.0       0.21521379639447275           0.6116582425661494 0.6300347568925839 1.0000   
         H         H         1.0       0.20354208141365246           0.6868352693792367 0.6275431651250194 1.0000   
         H         H         1.0       0.16500760661376895           0.6807297069171622 0.630600054899152  1.0000   
         H         H         1.0       0.27039882042213637           0.684612525514866  0.5901151129900124 1.0000   
         H         H         1.0       0.28092071939534163           0.7234641781685104 0.5986076619619438 1.0000   
         H         H         1.0       0.2565202412722059  0.7236476916471484  0.6831946159959073 1.0000   
         H         H         1.0       0.24236602571221968           0.6829148305145818 0.6741964524978961 1.0000   
         H         H         1.0       0.28297997081937615           0.6374329159842785 0.6054149300589983 1.0000   
         H         H         1.0       0.3171922289379669  0.6155290854585742  0.6299666860550864 1.0000   
         H         H         1.0       0.26862884536478937           0.6078680276846484 0.6994407095434926 1.0000   
         H         H         1.0       0.24171479152506106           0.6340694958974027 0.6784031469664811 1.0000   
         C         C         1.0       0.9867130051533999  0.7271982323391005  0.6313056757607612 1.0000   
         C         C         1.0       0.9961523349946447  0.7052379066018863  0.6400116849123598 1.0000   
         C         C         1.0       0.018287609124150395          0.7043371954790593 0.6525650143562662 1.0000   
         C         C         1.0       0.03318358244785169           0.7253084414677832 0.6566316666585288 1.0000   
         C         C         1.0       0.022547670693220168          0.7470834304425585 0.6490228191117338 1.0000   
         C         C         1.0       0.0009157949190521364         0.7476658064004028 0.6358228976676037 1.0000   
         H         H         1.0       0.9855926106825659  0.6884125910847229  0.6376818127839082 1.0000   
         H         H         1.0       0.02383410417923737           0.6875693726790469 0.6630673904300227 1.0000   
         H         H         1.0       0.03266293916223484           0.7626328517442986 0.6512927447306264 1.0000   
         H         H         1.0       0.997753851416804   0.763816638024288   0.6239960422883127 1.0000   
         C         C         1.0       0.0734385508745361  0.6975311391479071  0.6274832751565808 1.0000   
         C         C         1.0       0.07535936572887897           0.7033979717384728 0.6565153277856032 1.0000   
         C         C         1.0       0.09447556898518493           0.6927214640916441 0.6716993453098159 1.0000   
         C         C         1.0       0.10878225327867191           0.6753982771838484 0.6582796607676659 1.0000   
         C         C         1.0       0.10548915682374174           0.6698537138530183 0.6297271127923166 1.0000   
         C         C         1.0       0.0873299348344124  0.6802641301866462  0.6142143218256572 1.0000   
         C         C         1.0       0.05875408030723351           0.7234620706427438 0.6721259108332469 1.0000   
         C         C         1.0       0.051276072132363744          0.7191365173556679 0.7047417433798436 1.0000   
         C         C         1.0       0.042652218126390196          0.7385821975943079 0.7202984210994858 1.0000   
         C         C         1.0       0.03855943245163207           0.7368698745736969 0.7484983018215355 1.0000   
         C         C         1.0       0.041278251092905505          0.7154371612063033 0.7624987316071267 1.0000   
         C         C         1.0       0.04708062859922579           0.6946882051476176 0.7463090940473252 1.0000   
         C         C         1.0       0.05280192080642254           0.6974550265871842 0.7185919741656295 1.0000   
         C         C         1.0       0.09529894649856968           0.7474518751438588 0.6927989088788199 1.0000   
         C         C         1.0       0.11040838201816737           0.7663045128936373 0.693651761279263  1.0000   
         C         C         1.0       0.1099314497626205  0.7844895123158439  0.673714601631542  1.0000   
         C         C         1.0       0.09300649766602175           0.7827308511691139 0.6523911386367165 1.0000   
         C         C         1.0       0.0794933329937958  0.7620076069722028  0.6496504545351277 1.0000   
         C         C         1.0       0.07799825941198772           0.7447142163969453 0.6708695250367401 1.0000   
         C         C         1.0       0.12750364091672414           0.8070251181713325 0.6795988318001446 1.0000   
         C         C         1.0       0.19763163735693956           0.7744813974320441 0.6923317968839819 1.0000   
         C         C         1.0       0.18453967077663508           0.766974104781575  0.6698421839516449 1.0000   
         C         C         1.0       0.16317620907720812           0.778669160363656  0.663738343985946  1.0000   
         C         C         1.0       0.15557882055510863           0.7984216431793153 0.6795688639006053 1.0000   
         C         C         1.0       0.17252931669693294           0.8091992680915702 0.6989260926214802 1.0000   
         C         C         1.0       0.19350765066176495           0.7969043188304259 0.7054634764548299 1.0000   
         C         C         1.0       0.11491411750546189           0.8161314617109714 0.7086433192809645 1.0000   
         C         C         1.0       0.09275079003465204           0.8269822967559144 0.7067134746502797 1.0000   
         C         C         1.0       0.08078275436727544           0.8333125865915344 0.7310476165985589 1.0000   
         C         C         1.0       0.08910370041963182           0.8301763649853221 0.7581933606374087 1.0000   
         C         C         1.0       0.11197667653121403           0.8209241310051453 0.7606059837003711 1.0000   
         C         C         1.0       0.12442144665123138           0.8127387741114053 0.7355417859291685 1.0000   
         C         C         1.0       0.13714607617194002           0.852845258583123  0.6672671602193126 1.0000   
         C         C         1.0       0.13605376200323274           0.872965109798342  0.6489969288212629 1.0000   
         C         C         1.0       0.1313641624311855  0.8681277842855015  0.6208972175846064 1.0000   
         C         C         1.0       0.12800119271842375           0.8455142084186167 0.6108015135078372 1.0000   
         C         C         1.0       0.12538607363102255           0.8258738699479616 0.6282109367786499 1.0000   
         C         C         1.0       0.12965266043184187           0.8293273953461974 0.6579114797137716 1.0000   
         H         H         1.0       0.06172455822677759           0.7063250014811276 0.6134370177352211 1.0000   
         H         H         1.0       0.10006789014642999           0.6957717043967901 0.6929520945344608 1.0000   
         H         H         1.0       0.12290835748802169           0.6664454914455079 0.6711805294465969 1.0000   
         H         H         1.0       0.08558673373924373           0.6767284463296845 0.5900989474707123 1.0000   
         H         H         1.0       0.03960625826017572           0.7551526168403657 0.7092083671815811 1.0000   
         H         H         1.0       0.0319667093863365  0.7530455962527121  0.760271172192618  1.0000   
         H         H         1.0       0.04720558598723179           0.678515101438819  0.7582895052662602 1.0000   
         H         H         1.0       0.05312194687890503           0.6799328255232714 0.7073585254588103 1.0000   
         H         H         1.0       0.09504637289597571           0.7346783552530374 0.7080294451483246 1.0000   
         H         H         1.0       0.12240295499319599           0.7667428533944178 0.7103484505410295 1.0000   
         H         H         1.0       0.08833356938641833           0.7965461405838421 0.6366773574810288 1.0000   
         H         H         1.0       0.07010296229138602           0.7594589698678224 0.6303377413195985 1.0000   
         H         H         1.0       0.18797539384523976           0.7500836410891856 0.6586984578750353 1.0000   
         H         H         1.0       0.15079829909664016           0.7690827042190023 0.6482312613408304 1.0000   
         H         H         1.0       0.16877891814404253           0.8259793228611049 0.7106640740178651 1.0000   
         H         H         1.0       0.20558535711907944           0.8045629625492898 0.7218722038153549 1.0000   
         H         H         1.0       0.08507600347127942           0.8288967397715573 0.6857323148981078 1.0000   
         H         H         1.0       0.06270047642671095           0.8398508150915533 0.7290272736053297 1.0000   
         H         H         1.0       0.11898452084146456           0.8148401997643918 0.7805451178145177 1.0000   
         H         H         1.0       0.13971438055039032           0.8010851475042441 0.7374909861568898 1.0000   
         H         H         1.0       0.14367615089077468           0.8580594310665    0.6889391395946236 1.0000   
         H         H         1.0       0.13932592629224055           0.8903355751703657 0.6572371842175264 1.0000   
         H         H         1.0       0.12737013890878954           0.8418605495144481 0.5876782454601335 1.0000   
         H         H         1.0       0.1199598344502944  0.8107049824658072  0.61829616575443   1.0000   
         C         C         1.0       0.07346154646709292           0.7814178267320487 0.7930588370125073 1.0000   
         C         C         1.0       0.07127771079644085           0.7761046195426501 0.820442136913676  1.0000   
         C         C         1.0       0.0846235199064529  0.7580925004670775  0.8318311660691683 1.0000   
         C         C         1.0       0.09989025227862441           0.7450316078447629 0.8158163038281914 1.0000   
         C         C         1.0       0.1025144760065886  0.7506832373667051  0.787465223304339  1.0000   
         C         C         1.0       0.08886657306520876           0.7686704390825989 0.775033167985655  1.0000   
         H         H         1.0       0.06150962825119288           0.786401324908017  0.8353043425337764 1.0000   
         H         H         1.0       0.08015125395076517           0.7530919787655046 0.8532820657978091 1.0000   
         H         H         1.0       0.11499720502046525           0.7429249261294886 0.771870912962129  1.0000   
         H         H         1.0       0.08830299158252918           0.7687839827148891 0.7515108176845625 1.0000   
         C         C         1.0       0.1600840821142673  0.7066772377788811  0.8146462826769054 1.0000   
         C         C         1.0       0.14490723519734994           0.7267596966081703 0.8167088330235895 1.0000   
         C         C         1.0       0.15423585255020247           0.74914119776856   0.8172261126145476 1.0000   
         C         C         1.0       0.17841453894145876           0.7519216957818827 0.8188475445810292 1.0000   
         C         C         1.0       0.19362428289573463           0.7331028984353081 0.8208776569140912 1.0000   
         C         C         1.0       0.18410084796653536           0.7104169111874641 0.8184438556105931 1.0000   
         C         C         1.0       0.11700815368648156           0.7250105744668607 0.8275367931044162 1.0000   
         C         C         1.0       0.10186960746658039           0.7017830684132114 0.8200873747430024 1.0000   
         C         C         1.0       0.10664395383903136           0.6852511503711064 0.7981460476386348 1.0000   
         C         C         1.0       0.09470144598935226           0.6639734488311516 0.7968200874588558 1.0000   
         C         C         1.0       0.0767355628559816  0.6581820052671883  0.8151916111992742 1.0000   
         C         C         1.0       0.06979378500288069           0.674389821136163  0.8356715206045848 1.0000   
         C         C         1.0       0.08195408364221465           0.6959678092753016 0.8376507402479706 1.0000   
         C         C         1.0       0.12228834927395055           0.7469092536683721 0.8779391201454244 1.0000   
         C         C         1.0       0.12449628188729127           0.746608380151652  0.9069379562295848 1.0000   
         C         C         1.0       0.12689093331660675           0.724829060636911  0.921790586362386  1.0000   
         C         C         1.0       0.13026441617309026           0.7039413929784797 0.9053188401009554 1.0000   
         C         C         1.0       0.12725266261428184           0.7049735696536493 0.8759700865718614 1.0000   
         C         C         1.0       0.12251395558819551           0.7258221778167009 0.8613607668080799 1.0000   
         C         C         1.0       0.12600038663866794           0.7244815577822519 0.9565067642307913 1.0000   
         C         C         1.0       0.19998632122168616           0.7468404470429342 0.9766386078729067 1.0000   
         C         C         1.0       0.1844889985790479  0.7629550013127379  0.9689185318093984 1.0000   
         C         C         1.0       0.16124525623488964           0.7555775004631274 0.9623421472906465 1.0000   
         C         C         1.0       0.1536089125468942  0.7324055540363182  0.9626605778423591 1.0000   
         C         C         1.0       0.1706192142357847  0.7155917857280986  0.968274004006479  1.0000   
         C         C         1.0       0.19331428383067614           0.7224837909803796 0.976967492575008  1.0000   
         C         C         1.0       0.11772132418770172           0.6998623502955896 0.9698132943352132 1.0000   
         C         C         1.0       0.09847403726643726           0.6858642784408618 0.9589553326821316 1.0000   
         C         C         1.0       0.09309663341057028           0.6633328013378245 0.9696327097972735 1.0000   
         C         C         1.0       0.10454841038954665           0.6563600113791782 0.9942120909092913 1.0000   
         C         C         1.0       0.1186188550135181  0.6729890705711541  0.009440232644098323         1.0000   
         C         C         1.0       0.1254469177530301  0.694449473186359   0.9969774726149299 1.0000   
         C         C         1.0       0.10808248500933094           0.7579812515743904 0.9874415346883519 1.0000   
         C         C         1.0       0.09377650780511626           0.7781681905882333 0.9892113430104251 1.0000   
         C         C         1.0       0.07563584693970896           0.780328018267802  0.9699606417919983 1.0000   
         C         C         1.0       0.06971994646171975           0.7623328249773912 0.9506876185731294 1.0000   
         C         C         1.0       0.08385483909107087           0.7426601938409663 0.9500622848980799 1.0000   
         C         C         1.0       0.10471247009910589           0.7418711367401029 0.9654553104178931 1.0000   
         H         H         1.0       0.15426082053550183           0.687612326847362  0.8124626618461072 1.0000   
         H         H         1.0       0.1431048965397928  0.7650127844428266  0.8197631123958043 1.0000   
         H         H         1.0       0.18465283479244823           0.7699887165206402 0.8189385097093143 1.0000   
         H         H         1.0       0.19572178435915502           0.6941744244473049 0.815255294851604  1.0000   
         H         H         1.0       0.11974449759924387           0.6906517238833103 0.7810189766273562 1.0000   
         H         H         1.0       0.10021197005272575           0.6506019511837029 0.7804900133979326 1.0000   
         H         H         1.0       0.054738592294532706          0.6693880262820083 0.8494524714557814 1.0000   
         H         H         1.0       0.0767188455771472  0.7104664589076886  0.8535157551380455 1.0000   
         H         H         1.0       0.1230795161456905  0.764360805576948   0.8663331873365648 1.0000   
         H         H         1.0       0.12394759245334964           0.7628086073626302 0.9203682852386741 1.0000   
         H         H         1.0       0.13427153292246796           0.6867135235968012 0.9119446582513473 1.0000   
         H         H         1.0       0.13147673503916912           0.6885805281134655 0.8644510085840509 1.0000   
         H         H         1.0       0.1889558638001921  0.7816255486553104  0.9653461002292982 1.0000   
         H         H         1.0       0.15017812506699163           0.769943379634754  0.9586891400694891 1.0000   
         H         H         1.0       0.1663289650911415  0.6961663522584495  0.9711754983390256 1.0000   
         H         H         1.0       0.20665048913218734           0.7085996233573794 0.9791326746075055 1.0000   
         H         H         1.0       0.09047246127116473           0.6892112777428445 0.9387979876508847 1.0000   
         H         H         1.0       0.08035990088977929           0.6505127763910081 0.9615598688071197 1.0000   
         H         H         1.0       0.1264658987258922  0.6672914153499482  0.02987447224633777          1.0000   
         H         H         1.0       0.13714043732292522           0.7064429145291445 0.008144297761563557         1.0000   
         H         H         1.0       0.12313251280830988           0.7562064834019592 0.0007067160227547387        1.0000   
         H         H         1.0       0.09762331699004416           0.7938606778734275 0.0036689720172462525        1.0000   
         H         H         1.0       0.054479658588865165          0.7622445649470816 0.9350932724672016 1.0000   
         H         H         1.0       0.07676334146859437           0.7278979060426981 0.9361764794336678 1.0000   
         C         C         1.0       0.9648614784483682  0.7264313451131181  0.6103285192320062 1.0000   
         C         C         1.0       0.09715470539644544           0.6331670173015825 0.008735293702266445         1.0000   
         H         H         1.0       0.0606023177486239  0.6446563359168954  0.005509481624938584         1.0000   
         H         H         1.0       0.9481841541306457  0.7191585826436067  0.6203476423414537 1.0000   
         H         H         1.0       0.09803271909356814           0.6154350718391016 0.9960218257026647 1.0000   
         H         H         1.0       0.11117324693533615           0.628896099177903  0.024429314639420108         1.0000   
         C         C         1.0       0.07171089502605743           0.826893145478283  0.782891473416468  1.0000   
         C         C         1.0       0.0578338347316929  0.8020470832907748  0.781069662377254  1.0000   
         H         H         1.0       0.06111185073985914           0.8438607554935087 0.7870774978551393 1.0000   
         H         H         1.0       0.08392844924841114           0.8277462039683948 0.8017535781490538 1.0000   
         H         H         1.0       0.05395991041145054           0.7982979881998641 0.7581765298046846 1.0000   
         H         H         1.0       0.04205319274982977           0.8025990480992053 0.792593324665718  1.0000   
         C         C         1.0       0.2449648752455245  0.7475562372654667  0.9650955376922147 1.0000   
         C         C         1.0       0.22467321408517907           0.7547839767253168 0.9854051258738598 1.0000   
         H         H         1.0       0.23914788353585115           0.7448305674764993 0.9430872177125937 1.0000   
         H         H         1.0       0.259010565354542   0.7624696253411163  0.9647894214771645 1.0000   
         H         H         1.0       0.22727285393067062           0.7745910739696512 0.9886017683352925 1.0000   
         H         H         1.0       0.22892868616953743           0.7495410220412643 0.006954995446098122         1.0000   
         C         C         1.0       0.12068985233113524           0.6506190966017371 0.6149510850675539 1.0000   
         C         C         1.0       0.13863246248330538           0.6348091829836463 0.6315928521119796 1.0000   
         H         H         1.0       0.10741261180530248           0.6382819628073148 0.6050295487844146 1.0000   
         H         H         1.0       0.1312691946876897  0.6590373427803585  0.5979150461249805 1.0000   
         H         H         1.0       0.1296510261728076  0.6303857844677936  0.6525027753568688 1.0000   
         H         H         1.0       0.13838136200922282           0.6177951068414641 0.6206826478499541 1.0000   
         C         C         1.0       0.20346509496628828           0.7372433378677166 0.71936084940766   1.0000   
         C         C         1.0       0.21694752012257518           0.7578475358635417 0.7035564299681973 1.0000   
         H         H         1.0       0.19158943611857038           0.7283487374035146 0.7034859980031909 1.0000   
         H         H         1.0       0.19174077367172043           0.7452452532246926 0.7353623373885734 1.0000   
         H         H         1.0       0.2278456929699828  0.7682848140604476  0.7183939003746778 1.0000   
         H         H         1.0       0.228102169774956   0.7498426924588029  0.6880368315231088 1.0000   
         C         C         1.0       0.37766378655744953           0.6738910637641313 0.9603610064617868 1.0000   
         C         C         1.0       0.3731772634993112  0.6473894515662201  0.9673975541473007 1.0000   
         H         H         1.0       0.3962117902458659  0.6724023929460112  0.9524608107159577 1.0000   
         H         H         1.0       0.3789727391855055  0.6868579619195013  0.9789544889411184 1.0000   
         H         H         1.0       0.3879918810682624  0.6387975143770521  0.9773015687231033 1.0000   
         H         H         1.0       0.37380293891247457           0.637686504906229  0.9474539513689276 1.0000   
         C         C         1.0       0.33146622719956187           0.6165591250082203 0.6989875422488222 1.0000   
         C         C         1.0       0.31661051047324984           0.5971119779702624 0.6810801370779909 1.0000   
         H         H         1.0       0.34074250332734024           0.6274865201692541 0.6841509137091788 1.0000   
         H         H         1.0       0.3456220705574762  0.6063046415660381  0.7098637802958346 1.0000   
         H         H         1.0       0.32946500204660584           0.5892090966727777 0.6658150155031851 1.0000   
         H         H         1.0       0.3086592062977466  0.5824481790479314  0.6932450589297453 1.0000   
         C         C         1.0       0.2191879546768311  0.7381249234811217  0.829269711941131  1.0000   
         C         C         1.0       0.22114882119382814           0.741908957304492  0.8618553403349444 1.0000   
         H         H         1.0       0.22608355622261225           0.7541655114997071 0.817287008341252  1.0000   
         H         H         1.0       0.22988665694811156           0.7209602526250803 0.8224161386525729 1.0000   
         H         H         1.0       0.20965051429261714           0.7278673896357499 0.8717451211227967 1.0000   
         H         H         1.0       0.21374831587470053           0.7603635005950442 0.8685498961440342 1.0000   
         C         C         1.0       0.06876043578463897           0.6194648712630535 0.8471383070308272 1.0000   
         C         C         1.0       0.06782064685427391           0.632142898483005  0.817761226512785  1.0000   
         H         H         1.0       0.08644019112804413           0.61983304370508   0.8554610346494513 1.0000   
         H         H         1.0       0.0635162105271545  0.6004927952809245  0.8419465039493593 1.0000   
         H         H         1.0       0.04945208635035714           0.631264150353275  0.8107837252550747 1.0000   
         H         H         1.0       0.07897077211306303           0.6202652457135629 0.8020594905807021 1.0000   
         C         C         1.0       0.005826724667714167          0.7120267838960032 0.7962357962498917 1.0000   
         C         C         1.0       0.03359800457768092           0.7151899432902384 0.7921680908908619 1.0000   
         H         H         1.0       0.9970552768240918  0.7279326693446926  0.7883569705948043 1.0000   
         H         H         1.0       0.0014886540159815276         0.7125834839535625 0.8181867973631691 1.0000   
         H         H         1.0       0.045904769009064594          0.701803598210052  0.8027833785574405 1.0000   
         H         H         1.0       0.03845026255548567           0.7335434892346799 0.8025841583472876 1.0000   
         C         C         1.0       0.9876272442518133  0.7277168083075998  0.002286837879971637         1.0000   
         C         C         1.0       0.007129558033860839          0.7253601159447498 0.026095511648779324         1.0000   
         H         H         1.0       0.9923940173129114  0.7454254962279174  0.9901087971748314 1.0000   
         H         H         1.0       0.9688859078776605  0.7321396279406008  0.011854231929056214         1.0000   
         H         H         1.0       0.007990606256557564          0.7421113054818964 0.03834710989080259          1.0000   
         H         H         1.0       0.025488536788278893          0.7228693814921772 0.017765072423486794         1.0000   
         C         C         1.0       0.8758654569986374  0.6661919024744702  0.8047723949992509 1.0000   
         C         C         1.0       0.8549734475040595  0.6486446234979353  0.812817181573174  1.0000   
         H         H         1.0       0.8828364725778973  0.6766986565525341  0.823618791808439  1.0000   
         H         H         1.0       0.8684482488538621  0.6804560630736614  0.7904745386730346 1.0000   
         H         H         1.0       0.8514346242866389  0.6364320405966026  0.7958180361070406 1.0000   
         H         H         1.0       0.8399897032077317  0.6587317442411715  0.816840918013683  1.0000   
         C         C         1.0       0.198329052889567   0.5925690092304436  0.06735411774759203          1.0000   
         C         C         1.0       0.19923101590795203           0.5917471513536743 0.03465260308640872          1.0000   
         H         H         1.0       0.1959391388387424  0.6112724884403745  0.07356632557918674          1.0000   
         H         H         1.0       0.21552760396138188           0.5894088977231893 0.07808290219793546          1.0000   
         H         H         1.0       0.18308108069099707           0.596554263219719  0.023148863459675928         1.0000   
         H         H         1.0       0.20149560185956955           0.5726276682240357 0.02810407559583794          1.0000   
         C         C         1.0       0.015483457825492097          0.5322334167510446 0.09277103105819084          1.0000   
         C         C         1.0       0.99474162536158    0.5469905322602604  0.10684836334220105          1.0000   
         H         H         1.0       0.9784697606783861  0.46895090811219814           0.6259274160264389 1.0000   
         H         H         1.0       0.011061796942044566          0.5138767210551715 0.09995782841623635          1.0000   
         H         H         1.0       0.9952160499011329  0.5475900551220015  0.12932610176294101          1.0000   
         H         H         1.0       0.9775833727342919  0.5360775193721867  0.10548690595151489          1.0000   
         C         C         1.0       0.01962311000631356           0.5584915758295835 0.016757866388005027         1.0000   
         C         C         1.0       0.009382731622703977          0.5316645358649676 0.011242197869472781         1.0000   
         H         H         1.0       0.014028114784931489          0.5647494479024964 0.03884076768536815          1.0000   
         H         H         1.0       0.04042870186520431           0.5581203797123623 0.019280891187003935         1.0000   
         H         H         1.0       0.9986682234012256  0.5307183925731219  0.9925740580231632 1.0000   
         H         H         1.0       0.9955455549173065  0.5297169389101991  0.027874978395559635         1.0000   
         C         C         1.0       0.18515710989976197           0.6175851069324894 0.8204031503454201 1.0000   
         C         C         1.0       0.18627111745294056           0.6004913274829443 0.8464652076955107 1.0000   
         H         H         1.0       0.17099115767227946           0.6303686519501324 0.8235727540388668 1.0000   
         H         H         1.0       0.17712641103437604           0.607422981803468  0.8022042747849422 1.0000   
         H         H         1.0       0.18826346906156857           0.6127844449261047 0.8650706672923838 1.0000   
         H         H         1.0       0.20394735798875005           0.5920181097087689 0.8471563542279263 1.0000   
         C         C         1.0       0.006541109556848612          0.5481799263351836 0.8734633231539429 1.0000   
         C         C         1.0       0.9853905815955302  0.5385032746556891  0.8555282507704943 1.0000   
         H         H         1.0       0.0020195865945435987         0.5421397911491458 0.895724555508907  1.0000   
         H         H         1.0       0.005168142197159442          0.567859152623333  0.8726962376600804 1.0000   
         H         H         1.0       0.9909338825614061  0.5422590421581336  0.8332560156690411 1.0000   
         H         H         1.0       0.9828765953150655  0.5191985451271011  0.857118279197504  1.0000   
         C         C         1.0       0.15470757345772312           0.4465387478128043 0.9067267362700432 1.0000   
         C         C         1.0       0.14218200171091197           0.42730134507958967          0.9253643133641938 1.0000   
         H         H         1.0       0.16443822840762623           0.43691614503930226          0.8876631688769727 1.0000   
         H         H         1.0       0.16770737107880773           0.45492348921043296          0.9202777808008059 1.0000   
         H         H         1.0       0.1550685140896204  0.4113204297984133  0.9318717604234614 1.0000   
         H         H         1.0       0.12951472035921377           0.417832631372374  0.9098426776529915 1.0000   
         C         C         1.0       0.16320008317942566           0.5505009975205418 0.6494612447817318 1.0000   
         C         C         1.0       0.16434279442353691           0.5356305554786474 0.620487384539114  1.0000   
         H         H         1.0       0.15652640826459277           0.5687585403938301 0.6438358398453597 1.0000   
         H         H         1.0       0.18180016194457696           0.5535686798311406 0.6578252229467846 1.0000   
         H         H         1.0       0.17359193258888544           0.5455939959775468 0.6026461718277056 1.0000   
         H         H         1.0       0.1770239880226351  0.5220362469507261  0.624951453180917  1.0000   
         C         C         1.0       0.9793806769859995  0.5209976772471673  0.7674824216640314 1.0000   
         C         C         1.0       0.9889071903538822  0.5098540791265702  0.7395828500367042 1.0000   
         H         H         1.0       0.990035785934856   0.5164180952950206  0.7863832626942082 1.0000   
         H         H         1.0       0.9620269357369814  0.511767901672974   0.7718040329751684 1.0000   
         H         H         1.0       0.980599713168246   0.5162945642264763  0.718942973820171  1.0000   
         H         H         1.0       0.9820619509415833  0.4908352570223241  0.7380942217206896 1.0000   
         C         C         1.0       0.6586051986553344  0.769361353825206   0.8937150987143431 1.0000   
         C         C         1.0       0.6645945676090647  0.754681709599517   0.9208525893510608 1.0000   
         H         H         1.0       0.674786592592278   0.7779945261196684  0.886175831528791  1.0000   
         H         H         1.0       0.6455507929776391  0.7835360362768232  0.8973666320394458 1.0000   
         H         H         1.0       0.6684325766123742  0.7375453385592593  0.9111899746105241 1.0000   
         H         H         1.0       0.6816626232395199  0.7612174375355126  0.9304468078411731 1.0000   
         C         C         1.0       0.5973497750591256  0.9043825284117397  0.686938091844805  1.0000   
         C         C         1.0       0.6117675423908805  0.900026626564521   0.6604414618381174 1.0000   
         H         H         1.0       0.5806564430538798  0.9130689633151617  0.682263815891839  1.0000   
         H         H         1.0       0.6070614863775623  0.9186703227296315  0.700011520253788  1.0000   
         H         H         1.0       0.6308662291954638  0.9012563791094444  0.6665391427766786 1.0000   
         H         H         1.0       0.6095686047468225  0.9146500065858459  0.647105681346562  1.0000   
         C         C         1.0       0.4250797306790278  0.7773001041367029  0.8917242369399508 1.0000   
         C         C         1.0       0.4081302137562299  0.7827068900135216  0.8666077845492142 1.0000   
         H         H         1.0       0.43900240396878143           0.7928222402322583 0.8934076348500101 1.0000   
         H         H         1.0       0.41546011556257767           0.7801930047505864 0.9125153999206668 1.0000   
         H         H         1.0       0.41841804786017706           0.7807242178588865 0.8451196053627912 1.0000   
         H         H         1.0       0.404938986576966   0.802589608650142   0.8685749831253698 1.0000   
         C         C         1.0       0.520710742323527   0.6914328416716186  0.08735804751997778          1.0000   
         C         C         1.0       0.5475223079062079  0.6965740602284967  0.08444268339787597          1.0000   
         H         H         1.0       0.5180431119502947  0.6815369990604502  0.1079104774554751 1.0000   
         H         H         1.0       0.5088254015762301  0.7083483780927194  0.09095136562524031          1.0000   
         H         H         1.0       0.5576477353835679  0.6801690489892994  0.08337527760943675          1.0000   
         H         H         1.0       0.5524906476993684  0.7053568063183875  0.10492487708384424          1.0000   
         C         C         1.0       0.5424666548844392  0.6512639957541396  0.7847396086625229 1.0000   
         C         C         1.0       0.5342873388613169  0.6369872953727599  0.810444163365148  1.0000   
         H         H         1.0       0.5261913618431221  0.655591467535923   0.7728952205253541 1.0000   
         H         H         1.0       0.5506502745512145  0.6399992944081189  0.7677809449652045 1.0000   
         H         H         1.0       0.5476245670419275  0.6332154189365368  0.8270306045715365 1.0000   
         H         H         1.0       0.5274676389239423  0.6182084183078097  0.8027195514257908 1.0000   
         C         C         1.0       0.27537656466555793           0.7535008883403377 0.648741442079018  1.0000   
         C         C         1.0       0.2971117410931978  0.7550526114663586  0.6710297325325805 1.0000   
         H         H         1.0       0.2790097418568703  0.7634912859366096  0.6279467622663893 1.0000   
         H         H         1.0       0.25935956339786753           0.7613861538103812 0.6578889101157935 1.0000   
         H         H         1.0       0.2917144150963209  0.7499396150399205  0.6920095994070274 1.0000   
         H         H         1.0       0.3020357919508906  0.7753632514169783  0.6746135004529857 1.0000   
         C         C         1.0       0.4751465583455749  0.7547285329077082  0.7846355860997597 1.0000   
         C         C         1.0       0.4838097102872182  0.7655745335085689  0.755432772441738  1.0000   
         H         H         1.0       0.46450674909133755           0.7683213349867472 0.7949850284010399 1.0000   
         H         H         1.0       0.4901758107479283  0.7492191029155243  0.7978074446072233 1.0000   
         H         H         1.0       0.46642434390491927           0.7716075606795251 0.746138535294271  1.0000   
         H         H         1.0       0.49094121067079477           0.749490612617968  0.7414453250704275 1.0000   
         C         C         1.0       0.4427241375257061  0.5668329959661967  0.08295878958244574          1.0000   
         C         C         1.0       0.4281351592447021  0.5708231390683585  0.05471146958078399          1.0000   
         H         H         1.0       0.4604104060438136  0.5570584522426189  0.07936200274460181          1.0000   
         H         H         1.0       0.43355847175184015           0.5539357767284645 0.09539538150341809          1.0000   
         H         H         1.0       0.41191033798330806           0.5807424996199168 0.05862226131857384          1.0000   
         H         H         1.0       0.4247165894000269  0.5519135337568063  0.04666295913193563          1.0000   
         C         C         1.0       0.3590102307181145  0.6207265308139606  0.8120309609657834 1.0000   
         C         C         1.0       0.36022717214755245           0.6341457542805854 0.8409074957141612 1.0000   
         H         H         1.0       0.3406192594497378  0.6246314978361283  0.804028626912037  1.0000   
         H         H         1.0       0.3610064164439992  0.600627266522323   0.8158063544345902 1.0000   
         H         H         1.0       0.35181421945712765           0.6213510283333747 0.8557169523371795 1.0000   
         H         H         1.0       0.3459097476701     0.647921480269265   0.8375554288813929 1.0000   
         C         C         1.0       0.48044894435188473           0.7737794739615599 0.6358685349517871 1.0000   
         C         C         1.0       0.46321947329965746           0.7791661599314982 0.6117936006947062 1.0000   
         H         H         1.0       0.4811189071371924  0.7545946561203162  0.6408194189284427 1.0000   
         H         H         1.0       0.47110404965502317           0.7803810254343195 0.6553500198570863 1.0000   
         H         H         1.0       0.4785031595485742  0.7550783114844044  0.10998447154912605          1.0000   
         H         H         1.0       0.4572364299601993  0.798461764384732   0.6103165196707686 1.0000   
         C         C         1.0       0.8655011999514216  0.6419162638794339  0.005290285954103524         1.0000   
         C         C         1.0       0.8804287121678659  0.6643134416717593  0.016507805664340847         1.0000   
         H         H         1.0       0.8824239054556551  0.5741282653430156  0.5443196254537473 1.0000   
         H         H         1.0       0.8532871002016125  0.6459758906960061  0.9890137503861753 1.0000   
         H         H         1.0       0.8849508589474736  0.6748595354925155  0.9967977472959225 1.0000   
         H         H         1.0       0.8686181201123063  0.6761963097646242  0.028948889400806088         1.0000   
         C         C         1.0       0.6244913913122047  0.6624356129620053  0.1605494506966152 1.0000   
         C         C         1.0       0.6277422019582005  0.6876853955903328  0.17520051547898774          1.0000   
         H         H         1.0       0.6061210625418153  0.6619257223850822  0.15092996584900176          1.0000   
         H         H         1.0       0.6238310334108278  0.6501600608553559  0.17857749591411198          1.0000   
         H         H         1.0       0.6601804841685777  0.755587116029916   0.6914518579396464 1.0000   
         H         H         1.0       0.6184451396717     0.6856183224898815  0.1961773177478312 1.0000   
         C         C         1.0       0.7992615227915459  0.5843497885125938  0.9681268218122374 1.0000   
         C         C         1.0       0.8190413133129135  0.5632011362042507  0.9674849191834527 1.0000   
         H         H         1.0       0.8068323063965914  0.6018401532851888  0.9759500039802653 1.0000   
         H         H         1.0       0.7863668969404372  0.5778446893142992  0.9845618169930508 1.0000   
         H         H         1.0       0.8226967456903655  0.5589983260497551  0.9897338308766713 1.0000   
         H         H         1.0       0.8119227119452735  0.5457551908740731  0.959465032190668  1.0000   
         C         C         1.0       0.6662194129723185  0.6528527182841373  0.6987514521832952 1.0000   
         C         C         1.0       0.6650886816650853  0.6816174239924139  0.697043625271667  1.0000   
         H         H         1.0       0.6490107105259888  0.6465192679674291  0.7076995678338197 1.0000   
         H         H         1.0       0.6653803488684642  0.6444929242311785  0.6772528846776783 1.0000   
         H         H         1.0       0.6584322195935307  0.6845306854827296  0.6753585147145597 1.0000   
         H         H         1.0       0.6838255850540841  0.6891550038141012  0.697495650010747  1.0000   
         C         C         1.0       0.7005088835455779  0.6895544330900066  0.9564304863672398 1.0000   
         C         C         1.0       0.7184347454443752  0.6890218931244665  0.9825687467253187 1.0000   
         H         H         1.0       0.682601692239788   0.6873866086743795  0.9657702146792402 1.0000   
         H         H         1.0       0.7009234265411177  0.7089596533733488  0.9476076001722422 1.0000   
         H         H         1.0       0.7182657598510663  0.7071670014539455  0.9915659139362645 1.0000   
         H         H         1.0       0.7376207304012679  0.6855686571162548  0.9762238848906312 1.0000   
         C         C         1.0       0.8596440806439629  0.655462266533234   0.7054025210283914 1.0000   
         C         C         1.0       0.8422691777790849  0.6706997266701838  0.726169122990083  1.0000   
         H         H         1.0       0.8650634762991044  0.6394839475030993  0.7178279093785939 1.0000   
         H         H         1.0       0.8757924204580823  0.6657634442543999  0.7007000421538199 1.0000   
         H         H         1.0       0.8534914390052923  0.6748771380159158  0.7441748561158736 1.0000   
         H         H         1.0       0.836333082727311   0.6878877929865334  0.7166031866903297 1.0000   
         C         C         1.0       0.5863022002265378  0.5631722958766625  0.956991184718499  1.0000   
         C         C         1.0       0.5727602086502744  0.5794320293374401  0.9364524077287071 1.0000   
         H         H         1.0       0.5736531905193755  0.5585990385510199  0.9737588180159493 1.0000   
         H         H         1.0       0.5987504846153151  0.5729531626932265  0.9716529970278344 1.0000   
         H         H         1.0       0.567075344213799   0.5697258237871942  0.9169750163733353 1.0000   
         H         H         1.0       0.5865686854710414  0.591493372494675   0.9279789720685001 1.0000   
         C         C         1.0       0.6741078088313753  0.5276137919462676  0.795538968640419  1.0000   
         C         C         1.0       0.6712397218678476  0.556186004872887   0.799932972107216  1.0000   
         H         H         1.0       0.6937071284022088  0.5223863085452535  0.7934037195628731 1.0000   
         H         H         1.0       0.6649616048213146  0.5225452743967154  0.7759937000554978 1.0000   
         H         H         1.0       0.6779144774568299  0.5653310818601013  0.7822937843893002 1.0000   
         H         H         1.0       0.6513548429907838  0.5602399673540513  0.8001354460930169 1.0000   
         C         C         1.0       0.6176960528505274  0.5350355097066137  0.0640972388073433 1.0000   
         C         C         1.0       0.6321500847364766  0.5470397784381744  0.08853939798614174          1.0000   
         H         H         1.0       0.6019110590046064  0.5262827974147588  0.07323812631681492          1.0000   
         H         H         1.0       0.6119329771419727  0.5501710751124409  0.05084284276065665          1.0000   
         H         H         1.0       0.6380322013767978  0.5345286777217424  0.1042723706801667 1.0000   
         H         H         1.0       0.6182951045290975  0.5579713918515138  0.09999244716609934          1.0000   
         C         C         1.0       0.5156494180776674  0.6113016529447378  0.6908148280592457 1.0000   
         C         C         1.0       0.5301157830687621  0.5970760768140485  0.7137044476725612 1.0000   
         H         H         1.0       0.5268257081827776  0.6247196891160244  0.6800125999192613 1.0000   
         H         H         1.0       0.5091147189432224  0.5984455876933068  0.6732092432776984 1.0000   
         H         H         1.0       0.516290054382729   0.5873759123036681  0.7260482617719791 1.0000   
         H         H         1.0       0.5391153487476613  0.6105384613366469  0.727771940147219  1.0000   
         C         C         1.0       0.7610720715296586  0.4927809862962263  0.09162536293015378          1.0000   
         C         C         1.0       0.711510663219814   0.5754804338264865  0.632127250393073  1.0000   
         H         H         1.0       0.7673366818481392  0.4782665700485607  0.07928893624134736          1.0000   
         H         H         1.0       0.7585413675982888  0.5071624710699449  0.07671359905780806          1.0000   
         H         H         1.0       0.7036509792795314  0.5836747537707406  0.6522818983333167 1.0000   
         H         H         1.0       0.7159473975439762  0.5566323615500429  0.6340116315478991 1.0000   
         C         C         1.0       0.7408067665709133  0.49600775140829256           0.7485162014408037 1.0000   
         C         C         1.0       0.754356679044726   0.5146533495176577  0.7316134770478885 1.0000   
         H         H         1.0       0.7527774101669171  0.48099370486068227           0.7505707270331543 1.0000   
         H         H         1.0       0.7411816976913047  0.5016535371984145  0.7718160199192712 1.0000   
         H         H         1.0       0.7533632643522127  0.508994648444405   0.7086102396615268 1.0000   
         H         H         1.0       0.7736657156386025  0.5130057127522347  0.7342244319923364 1.0000   
         C         C         1.0       0.613004610151643   0.38756355835625994           0.09140901001177637          1.0000   
         C         C         1.0       0.6183533096859136  0.3773092986157743  0.06139992765147495          1.0000   
         H         H         1.0       0.6084251935197241  0.37386041525097585           0.10725156871038344          1.0000   
         H         H         1.0       0.5950301360557005  0.39586068926588436           0.0906347081872767 1.0000   
         H         H         1.0       0.6322951240561205  0.36316192869636355           0.06232425154897947          1.0000   
         H         H         1.0       0.6029999141443513  0.36750944140800923           0.05108947456694657          1.0000   
         C         C         1.0       0.5589358268274297  0.4412510531330886  0.785781116592976  1.0000   
         C         C         1.0       0.5626825082184171  0.4251928046463821  0.8116306291112263 1.0000   
         H         H         1.0       0.5511136444857538  0.45927582336266837           0.7934733691681711 1.0000   
         H         H         1.0       0.545369902688549   0.43391814223293673           0.770742309626512  1.0000   
         H         H         1.0       0.544960231732125   0.41843872303158386           0.8203513171162089 1.0000   
         H         H         1.0       0.570469743561944   0.4071382261854237  0.8069151856542579 1.0000   
         C         C         1.0       0.9086979495675579  0.077145456087861   0.9160059043886162 1.0000   
         C         C         1.0       0.9164728341152357  0.07430776648021947           0.8849784614406352 1.0000   
         H         H         1.0       0.8988768793533486  0.060660945428175905         0.9215264222496038 1.0000   
         H         H         1.0       0.8948123265957745  0.09113779079297224           0.9138612989832099 1.0000   
         H         H         1.0       0.9077623316449334  0.05759564450032495           0.8775698446942901 1.0000   
         H         H         1.0       0.9346906233699065  0.06830900296306841           0.8872650173462306 1.0000   
         C         C         1.0       0.9619761214635854  0.04189128439209311           0.7046931529556435 1.0000   
         C         C         1.0       0.9730216117787104  0.02425437490686688           0.6820861442364087 1.0000   
         H         H         1.0       0.9434005999811038  0.04503434621872948           0.6981201100907419 1.0000   
         H         H         1.0       0.9578834118515154  0.03425504055852624           0.7264711013127066 1.0000   
         H         H         1.0       0.9655216149138232  0.007095969908954336         0.6840227274958237 1.0000   
         H         H         1.0       0.9924973371743961  0.023821672759466672         0.6863260796452922 1.0000   
         C         C         1.0       0.0769323015992196  0.35189230557106216           0.03489862057082638          1.0000   
         C         C         1.0       0.09444337766844879           0.34758609212902886          0.010205766070041866         1.0000   
         H         H         1.0       0.08436210286843515           0.34340646697682076          0.05490873811620478          1.0000   
         H         H         1.0       0.05780222374168531           0.3455231772785252 0.03111915743830651          1.0000   
         H         H         1.0       0.08829307632812133           0.35905299786235867          0.9932685959224051 1.0000   
         H         H         1.0       0.11301665579474962           0.35482730529602935          0.015120629832003463         1.0000   
         C         C         1.0       0.003285055223626321          0.200997446390391  0.03462070147623564          1.0000   
         C         C         1.0       0.02895875510315804           0.20876454569389996          0.0424779809988054 1.0000   
         H         H         1.0       0.9913815129048844  0.2030728456845906  0.05439060549496144          1.0000   
         H         H         1.0       0.9961877215632714  0.2130241871998712  0.017909462569035695         1.0000   
         H         H         1.0       0.03918923001817043           0.19697433038251883          0.05748036660061717          1.0000   
         H         H         1.0       0.026168676482361652          0.2243278014367729 0.057050215692860284         1.0000   
         C         C         1.0       0.9640583036508605  0.26168496152062326           0.8243465308157772 1.0000   
         C         C         1.0       0.9445500451699793  0.24867604634464238           0.8416686688345802 1.0000   
         H         H         1.0       0.9645081232939516  0.2800116435640794  0.8332444848424919 1.0000   
         H         H         1.0       0.9599239941012174  0.2633475406971329  0.8007606574252548 1.0000   
         H         H         1.0       0.9276302796063636  0.2592077612541456  0.8436595630116348 1.0000   
         H         H         1.0       0.9493002139413285  0.24753942061207346           0.8645860132496657 1.0000   
         C         C         1.0       0.08957683177571907           0.40244040755745814          0.6663841158275184 1.0000   
         C         C         1.0       0.07793371801207583           0.3990787521491212 0.6369351739683    1.0000   
         H         H         1.0       0.1072432903591034  0.3965489458120573  0.6645137332683391 1.0000   
         H         H         1.0       0.07930956687952895           0.38907382546614727          0.6799411358272102 1.0000   
         H         H         1.0       0.09067991532880537           0.40661498543410923          0.6219439339102685 1.0000   
         H         H         1.0       0.061504960306134615          0.4094907587571341 0.636025056957805  1.0000   
         C         C         1.0       0.985701974945411   0.22480792754700005           0.6132425737053189 1.0000   
         C         C         1.0       0.0027254350920058457         0.20350177775153697          0.6122192419001616 1.0000   
         H         H         1.0       0.969651594384077   0.2206050956755412  0.6256343502707222 1.0000   
         H         H         1.0       0.9784756377173449  0.22386867444266495           0.5905478122024792 1.0000   
         H         H         1.0       0.02040864922390284           0.21053595611827627          0.6082087526594756 1.0000   
         H         H         1.0       0.9961522744076217  0.19382690072358189           0.5922421709609353 1.0000   
         C         C         1.0       0.19864084885294073           0.21443648573596827          0.9683602871546126 1.0000   
         C         C         1.0       0.20714148124200735           0.21915614616800386          0.9995185078577863 1.0000   
         H         H         1.0       0.20274255714248282           0.19503150831487637          0.9630325680054017 1.0000   
         H         H         1.0       0.20938546028381233           0.2252342574820931 0.9545125395902956 1.0000   
         H         H         1.0       0.22552079951920992           0.2126994449441654 0.0016115015833446655        1.0000   
         H         H         1.0       0.21209608394566945           0.2395031797387114 0.0006326415075896819        1.0000   
         C         C         1.0       0.08450745930709588           0.339749667415644  0.7518004573275315 1.0000   
         C         C         1.0       0.07248478252159286           0.3362234037183922 0.7800958825835924 1.0000   
         H         H         1.0       0.10322172957304308           0.33379813173317235          0.7548457090586795 1.0000   
         H         H         1.0       0.0866517674575933  0.35975448371399255           0.7502535801643687 1.0000   
         H         H         1.0       0.08123617152751021           0.35055339003736785          0.7946738103735637 1.0000   
         H         H         1.0       0.052456492245556374          0.34135142904905835          0.7795670118823628 1.0000   
         C         C         1.0       0.0832710521250688  0.11215948917771064           0.0653046982824923 1.0000   
         C         C         1.0       0.04807644035991743           0.11632139912501009          0.5610771124809386 1.0000   
         H         H         1.0       0.07233417496749883           0.11493445277343672          0.0477567453652068 1.0000   
         H         H         1.0       0.08811944177709918           0.09295462220257664          0.06523854875819834          1.0000   
         H         H         1.0       0.04972720057114466           0.13428087635318867          0.552795915942752  1.0000   
         H         H         1.0       0.062432539425470335          0.10732084591714641          0.5500597984238206 1.0000   
         C         C         1.0       0.0600776674885386  0.8131384791495135  0.9364130076132303 1.0000   
         C         C         1.0       0.06430388257115127           0.8048346197747609 0.9676058483237913 1.0000   
         H         H         1.0       0.042944809819570606          0.8057219197108509 0.9276226757209315 1.0000   
         H         H         1.0       0.07410820511559746           0.8043686669709594 0.9241708382278426 1.0000   
         H         H         1.0       0.04676126630709021           0.8043610237399138 0.9773180047355537 1.0000   
         H         H         1.0       0.07454459911444002           0.8176537434004486 0.9803514824069185 1.0000   
         C         C         1.0       0.10815314053500535           0.07601688226388004          0.9880598721407307 1.0000   
         C         C         1.0       0.08799395742114657           0.08307738989765379          0.968382368924786  1.0000   
         H         H         1.0       0.10732654477267234           0.08952878933583674          0.005939999765989468         1.0000   
         H         H         1.0       0.12470376135091321           0.08158343577741478          0.9785858798140495 1.0000   
         H         H         1.0       0.08903219671856744           0.10330550859783472          0.9632536566095091 1.0000   
         H         H         1.0       0.09036220863612043           0.0723908577188761 0.9482416890255329 1.0000   
         C         C         1.0       0.10015593347335448           0.8974069763834028 0.5982644679573296 1.0000   
         C         C         1.0       0.12709517268966297           0.8890949741535138 0.5986620310669307 1.0000   
         H         H         1.0       0.09218285306446955           0.8984521553474183 0.5765893525682889 1.0000   
         H         H         1.0       0.090857930957421   0.8830317982699729  0.6101283543240763 1.0000   
         H         H         1.0       0.13664016958305827           0.9050540817081957 0.6051013602063654 1.0000   
         H         H         1.0       0.13531350364277717           0.8831920694612712 0.5778704175899029 1.0000   
         C         C         1.0       0.09252495478410205           0.12101102010776921          0.7830487833837763 1.0000   
         C         C         1.0       0.09685541890769556           0.1397290168854648 0.7581169362148541 1.0000   
         H         H         1.0       0.08156844310215638           0.13007232118022416          0.8004690742669093 1.0000   
         H         H         1.0       0.10964758141863928           0.11795970548202672          0.7949463100098301 1.0000   
         H         H         1.0       0.11070279286969775           0.1327707143425849 0.742586305034674  1.0000   
         H         H         1.0       0.10551692212105834           0.15675044237844493          0.7675544272748035 1.0000   
         C         C         1.0       0.9861136271706258  0.9441163283317316  0.8377154233359834 1.0000   
         C         C         1.0       0.9968697990903104  0.9552078110738925  0.810272328026674  1.0000   
         H         H         1.0       0.9733109975391045  0.9288220142817997  0.8357951361537215 1.0000   
         H         H         1.0       0.9748059495836724  0.9576477988497851  0.8468731691528752 1.0000   
         H         H         1.0       0.0005728924945491709         0.9398524094994912 0.7956819818716058 1.0000   
         H         H         1.0       0.981559237753465   0.9631104972108014  0.7975749232375743 1.0000   
         C         C         1.0       0.9879019807728714  0.9950014575633126  0.5755808041474678 1.0000   
         C         C         1.0       0.9904566384119828  0.976337069478065   0.5504178418895713 1.0000   
         H         H         1.0       0.9704124702171495  0.9914766010382323  0.5872091325597485 1.0000   
         H         H         1.0       0.9850040175556718  0.01361886793514211           0.5697144892589389 1.0000   
         H         H         1.0       0.9741957687363715  0.9776522520444274  0.5354281369863845 1.0000   
         H         H         1.0       0.9901935900002604  0.9578689714820574  0.5616053700623022 1.0000   
         C         C         1.0       0.14563928261251707           0.15108878180264573          0.8135247698105504 1.0000   
         C         C         1.0       0.12587092093313526           0.15835930698840106          0.8359156296751556 1.0000   
         H         H         1.0       0.1553617885255345  0.16767634010136945           0.8089869604175459 1.0000   
         H         H         1.0       0.14049524799308866           0.1436264551083009 0.7930584761528396 1.0000   
         H         H         1.0       0.13347843522248135           0.1620587508829954 0.856741352396649  1.0000   
         H         H         1.0       0.11411177991304158           0.14266322305909643          0.839627197167161  1.0000   
         C         C         1.0       0.1462999153160003  0.9928471113875327  0.9085330914267369 1.0000   
         C         C         1.0       0.14712694996173037           0.9759134994749264 0.8824489424921984 1.0000   
         H         H         1.0       0.15207787954425225           0.9848516848427672 0.9294983134302124 1.0000   
         H         H         1.0       0.12730762263972792           0.9971795082607192 0.9133866987277942 1.0000   
         H         H         1.0       0.14474360017646004           0.9870074128467463 0.863357649329606  1.0000   
         H         H         1.0       0.16670058759737957           0.9688517503879043 0.8821689507363126 1.0000   
         C         C         1.0       0.18212107211860454           0.015917118552536413         0.7846679712080633 1.0000   
         C         C         1.0       0.19331980221393572           0.03341494801111344          0.7619609424266109 1.0000   
         H         H         1.0       0.18535039504715412           0.02221095770651793          0.8075216776976062 1.0000   
         H         H         1.0       0.19120998539372847           0.9984549153350498 0.7837559279742387 1.0000   
         H         H         1.0       0.1811416961268363  0.04887641832887235           0.7594729379889867 1.0000   
         H         H         1.0       0.193628862232753   0.02333745211975735           0.7407782945320691 1.0000   
         C         C         1.0       0.17197825891243007           0.24618466955854626          0.7404128907604026 1.0000   
         C         C         1.0       0.14383491124637773           0.24369942162065505          0.7342992838908206 1.0000   
         H         H         1.0       0.17389519598020423           0.25317123587218754          0.7629138655968734 1.0000   
         H         H         1.0       0.18201806209165547           0.25844896242842735          0.7264678319375013 1.0000   
         H         H         1.0       0.1356233534552945  0.26129663903389755           0.7342549664587228 1.0000   
         H         H         1.0       0.13513793748295386           0.23462445091034134          0.7513609106261202 1.0000   
         C         C         1.0       0.14665882832610536           0.07085537899185956          0.7072913979526908 1.0000   
         C         C         1.0       0.13957993014368636           0.06730944128658711          0.676223651987561  1.0000   
         H         H         1.0       0.1533069838674892  0.05321095168784851           0.71683383329984   1.0000   
         H         H         1.0       0.1303914134836661  0.07598953520820717           0.7197119485696605 1.0000   
         H         H         1.0       0.15605027884821157           0.06408723125605986          0.6670750478301882 1.0000   
         H         H         1.0       0.13340546120684385           0.08559566490508907          0.6661060595205016 1.0000   
         C         C         1.0       0.17934485961017124           0.12621228712444316          0.015127867648442539         1.0000   
         C         C         1.0       0.19122964285940006           0.14106059450728456          0.9912622608445989 1.0000   
         H         H         1.0       0.16328155673289016           0.11727944062396255          0.007577615436273444         1.0000   
         H         H         1.0       0.17208676922844332           0.13979005414437362          0.031566586495219706         1.0000   
         H         H         1.0       0.20795258973938457           0.14768842570544732          0.0002472237558270862        1.0000   
         H         H         1.0       0.17821881714979745           0.15617769499921852          0.9870466090918256 1.0000   
         C         C         1.0       0.3206362604820636  0.1628601592359573  0.7733205305089424 1.0000   
         C         C         1.0       0.2975411838445636  0.17632395493113528           0.7829530130264022 1.0000   
         H         H         1.0       0.33714300519755935           0.17211674338673286          0.7815044300595424 1.0000   
         H         H         1.0       0.32398156465912364           0.16486229382330553          0.7504931880485549 1.0000   
         H         H         1.0       0.29917486995786696           0.19490463581017325          0.7808682425452508 1.0000   
         H         H         1.0       0.29445808563812853           0.17346224837149862          0.8062751193780585 1.0000   
         C         C         1.0       0.16028514677746217           0.019075118391563395         0.5840008654183961 1.0000   
         C         C         1.0       0.16290251833664732           0.03856267327452301          0.6071409087451487 1.0000   
         H         H         1.0       0.16035129959985026           0.0013056743336876675        0.5945239076512288 1.0000   
         H         H         1.0       0.17788026004836469           0.017869961318483618         0.5725743851776374 1.0000   
         H         H         1.0       0.19647817049247673           0.9466886583613131 0.11167011189890585          1.0000   
         H         H         1.0       0.14524228249244073           0.04642186329379183          0.6106499420861594 1.0000   
         C         C         1.0       0.8131014228737147  0.11923052927140074           0.7368885902240985 1.0000   
         C         C         1.0       0.8284916930367847  0.14303872317603905           0.7349364856505523 1.0000   
         H         H         1.0       0.80156146568904    0.11865321160131585           0.7199385081091343 1.0000   
         H         H         1.0       0.8244841986253387  0.10335208194533078           0.7339770073712973 1.0000   
         H         H         1.0       0.8194324524181277  0.1588151280363919  0.7405566002386127 1.0000   
         H         H         1.0       0.8330041047515088  0.14554069856279173           0.7128280008999683 1.0000   
         C         C         1.0       0.9145960111017865  0.13510895709794007           0.6730631453855889 1.0000   
         C         C         1.0       0.8931023115180249  0.14498291055283039           0.18992455104251826          1.0000   
         H         H         1.0       0.9194581806849752  0.12411743549069125           0.21779922483787417          1.0000   
         H         H         1.0       0.908535758256279   0.11938242799608619           0.6866282899821248 1.0000   
         H         H         1.0       0.9053838804019241  0.16019251236992132           0.18262891934910375          1.0000   
         H         H         1.0       0.8852981205125202  0.1537093402680134  0.2097466012647775 1.0000   
         C         C         1.0       0.8684968494073265  0.08170558994012289           0.011709206135475325         1.0000   
         C         C         1.0       0.8670617760120791  0.09095772343204134           0.9805783097102183 1.0000   
         H         H         1.0       0.8878847878597378  0.08187384774542661           0.01555257803130261          1.0000   
         H         H         1.0       0.862951965220424   0.06310810994578775           0.007992023977233309         1.0000   
         H         H         1.0       0.8724335810044429  0.07519035445239308           0.9655509034058272 1.0000   
         H         H         1.0       0.8803225493395839  0.10618900898777937           0.9782126080158576 1.0000   
         C         C         1.0       0.7170647670985695  0.02289416277218126           0.753085674887564  1.0000   
         C         C         1.0       0.6995296659482059  0.03165091950276522           0.7772603470925382 1.0000   
         H         H         1.0       0.713996089514817   0.0037268817335418536        0.7461068629590621 1.0000   
         H         H         1.0       0.7346503161663783  0.021987503061320576         0.7640934459289609 1.0000   
         H         H         1.0       0.6823747066418884  0.03819241699924181           0.7687147786509915 1.0000   
         H         H         1.0       0.6964040671491717  0.01726497365101376           0.7921549063015765 1.0000   
         C         C         1.0       0.7696748298525716  0.43790070834743744           0.014516129972890868         1.0000   
         C         C         1.0       0.7700541089312897  0.4181193278916044  0.03718430417800067          1.0000   
         H         H         1.0       0.7798634170838039  0.4543096535700302  0.020614567905562486         1.0000   
         H         H         1.0       0.7798251460119096  0.43110832369877217           0.9946581999509356 1.0000   
         H         H         1.0       0.7637591075682193  0.42677511673762564           0.058738251346029724         1.0000   
         H         H         1.0       0.788512285543063   0.41434954959420855           0.03967850816548246          1.0000   
         C         C         1.0       0.7286748878792734  0.20691144016268212           0.10113995282326682          1.0000   
         C         C         1.0       0.7524236475924662  0.2064890489453167  0.08244618679681359          1.0000   
         H         H         1.0       0.732939059214161   0.21030416228501073           0.12275467530456052          1.0000   
         H         H         1.0       0.7211383439548145  0.18861318532825133           0.10078444334788905          1.0000   
         H         H         1.0       0.7620095401789717  0.22269877915256617           0.08642273065354189          1.0000   
         H         H         1.0       0.7331929968036501  0.19062554019219002           0.5550094345794896 1.0000   
         C         C         1.0       0.7560852404387064  0.23790940936705599           0.9788698901886138 1.0000   
         C         C         1.0       0.7424882694773836  0.2181773019384867  0.9947717493359783 1.0000   
         H         H         1.0       0.7583163338209691  0.23469124034433586           0.9558748400100178 1.0000   
         H         H         1.0       0.7761063020394614  0.23905160474222092           0.9850981205264763 1.0000   
         H         H         1.0       0.745228727895712   0.22076824686313568           0.01718566835909341          1.0000   
         H         H         1.0       0.7226694638305107  0.2194692604405186  0.9883551990773736 1.0000   
         C         C         1.0       0.6927014521686446  0.3953856207626053  0.6383706382497231 1.0000   
         C         C         1.0       0.6831179362574085  0.37079187681105313           0.6257794884825642 1.0000   
         H         H         1.0       0.6988281142097261  0.40867121980994414           0.6209486170133112 1.0000   
         H         H         1.0       0.7103123275053368  0.39249900838208307           0.6502423577099291 1.0000   
         H         H         1.0       0.6987765977412199  0.36223564747620135           0.6147169393628502 1.0000   
         H         H         1.0       0.6685414040248976  0.37578819813455433           0.6102873554984202 1.0000   
         C         C         1.0       0.6978192246784481  0.22070236879799252           0.881033669608576  1.0000   
         C         C         1.0       0.6877435602178736  0.20361059634278753           0.8581223793040158 1.0000   
         H         H         1.0       0.6903715232138697  0.21596821137917174           0.9022053527769912 1.0000   
         H         H         1.0       0.7181174998405028  0.22167477253625426           0.8824447206796616 1.0000   
         H         H         1.0       0.6867357907013619  0.2112239325931045  0.8371215841897315 1.0000   
         H         H         1.0       0.6691829491242307  0.19796061997736425           0.864407092951724  1.0000   
         C         C         1.0       0.6529397077533906  0.38755627468076803           0.9022110190161479 1.0000   
         C         C         1.0       0.6797386252317082  0.3950699898617655  0.9115557378820279 1.0000   
         H         H         1.0       0.6453191905358037  0.40310531518571435           0.8915606390184521 1.0000   
         H         H         1.0       0.6425999925982246  0.38435624274641517           0.9209458699039667 1.0000   
         H         H         1.0       0.690824670768749   0.39434481335408617           0.8922692624839056 1.0000   
         H         H         1.0       0.6813897168189122  0.4141457299279861  0.9189232530306128 1.0000   
         C         C         1.0       0.5650781317216631  0.25714966720917204           0.7010392725130693 1.0000   
         C         C         1.0       0.5653361225472211  0.2335109337883477  0.6827361588451688 1.0000   
         H         H         1.0       0.557031371168428   0.25032073187327625           0.7209772351666373 1.0000   
         H         H         1.0       0.5531958807769383  0.27170109780247337           0.6913583413678341 1.0000   
         H         H         1.0       0.5692750938031446  0.21752540598268796           0.6972953685779915 1.0000   
         H         H         1.0       0.5467833540427408  0.22712246365741098           0.6771100731475598 1.0000   
         C         C         1.0       0.7043034611028759  0.18957034206260046           0.687367399371012  1.0000   
         C         C         1.0       0.7202619777142629  0.20969548086248324           0.6729766427556995 1.0000   
         H         H         1.0       0.6858426751917787  0.19522590442899954           0.6886536479612126 1.0000   
         H         H         1.0       0.7074935624991614  0.18959364368086298           0.7103887160443714 1.0000   
         H         H         1.0       0.7227231970815244  0.2061656904386737  0.6500159482328899 1.0000   
         H         H         1.0       0.737819939583361   0.20753230382511015           0.684773141417685  1.0000   
         C         C         1.0       0.5233319378299238  0.8313320488352052  0.9028890850793786 1.0000   
         C         C         1.0       0.5173725420378175  0.8149578059076048  0.9284216662834474 1.0000   
         H         H         1.0       0.5059510452872192  0.8351712178870636  0.8913877761248554 1.0000   
         H         H         1.0       0.5348274142196836  0.8228706353891935  0.8871073968690545 1.0000   
         H         H         1.0       0.5047991010591809  0.8242557632543149  0.9431386434190168 1.0000   
         H         H         1.0       0.5061968347582728  0.8000024790733923  0.9203161191950681 1.0000   
         C         C         1.0       0.7105354840827675  0.024199033735199826         0.98776453574137   1.0000   
         C         C         1.0       0.7034439235137219  0.04703437177016245           0.0046230119094055055        1.0000   
         H         H         1.0       0.7274003313363844  0.027232087571493757         0.9780899427761744 1.0000   
         H         H         1.0       0.7162878128220284  0.01027516878319834           0.0008482062595598361        1.0000   
         H         H         1.0       0.7074710393165186  0.04481428761588924           0.0268750042743493 1.0000   
         H         H         1.0       0.6838440115322988  0.049891504588769564         0.004735327870068584         1.0000   
         C         C         1.0       0.5727765100529167  0.938784919514828   0.8301467856250285 1.0000   
         C         C         1.0       0.5795914649544701  0.9141231553722429  0.844268220804776  1.0000   
         H         H         1.0       0.554412098559747   0.9381446348528025  0.8233215570633947 1.0000   
         H         H         1.0       0.5739708619377053  0.9521318692579008  0.8476998521751643 1.0000   
         H         H         1.0       0.5690978539645546  0.9114099948751143  0.8633471704203962 1.0000   
         H         H         1.0       0.599047224935073   0.9165592793819136  0.8520343620226658 1.0000   
         C         C         1.0       0.6159862813918876  0.07405048030520445           0.5776910317639811 1.0000   
         C         C         1.0       0.6432689513792506  0.07468494761994249           0.5682716190512784 1.0000   
         H         H         1.0       0.6019748734400215  0.07873091603430682           0.5632903342493499 1.0000   
         H         H         1.0       0.6139643713801684  0.08818435439232797           0.5947221270221126 1.0000   
         H         H         1.0       0.6466082026516953  0.08990917379914198           0.5530548791099875 1.0000   
         H         H         1.0       0.6472369346665431  0.058404434219998747         0.5561355245314592 1.0000   
         C         C         1.0       0.6011613556566715  0.8528593131635125  0.046524147313306896         1.0000   
         C         C         1.0       0.6176904262626336  0.8898765573631028  0.5565657819955147 1.0000   
         H         H         1.0       0.587741422521524   0.8449283098668792  0.05896911607297839          1.0000   
         H         H         1.0       0.6084814846353834  0.835115182049485   0.040430928374124875         1.0000   
         H         H         1.0       0.6295560946986956  0.8802883537600333  0.5718209529953981 1.0000   
         H         H         1.0       0.6284580074557929  0.8948155930711934  0.5376099260914886 1.0000   
         C         C         1.0       0.6924118517572078  0.9155355740053456  0.8149501954899707 1.0000   
         C         C         1.0       0.7079479092846047  0.9298298811069794  0.7907824921840754 1.0000   
         H         H         1.0       0.6779757299033484  0.9047978490666148  0.8044277884926492 1.0000   
         H         H         1.0       0.7033697728209524  0.9029362891163351  0.8279696963903468 1.0000   
         H         H         1.0       0.7179370471388488  0.9162899260608278  0.7795251431073897 1.0000   
         H         H         1.0       0.7200819499043076  0.9449563323080715  0.7994669181610046 1.0000   
         C         C         1.0       0.3422671395064568  0.08937129234313335           0.5965891169811696 1.0000   
         C         C         1.0       0.33438652447100403           0.11092007228534073          0.5778171800700067 1.0000   
         H         H         1.0       0.3333401771363046  0.07225231577788871           0.5909171764620483 1.0000   
         H         H         1.0       0.33732082788599604           0.094656697587576  0.6196090980728052 1.0000   
         H         H         1.0       0.33829834042646895           0.10597047523813052          0.5551221809498174 1.0000   
         H         H         1.0       0.346447469677377   0.12709566866205124           0.5829290327276271 1.0000   
         C         C         1.0       0.5612204177278288  0.18931771773857042           0.044495750795247924         1.0000   
         C         C         1.0       0.5733987922120202  0.20517127691419856           0.021346637625180964         1.0000   
         H         H         1.0       0.5523823912769402  0.20165285021609938           0.060605167798033266         1.0000   
         H         H         1.0       0.5742237241518546  0.1803530906252105  0.056522172174442886         1.0000   
         H         H         1.0       0.5592612597131782  0.21603385742331258           0.011766861027189712         1.0000   
         H         H         1.0       0.5809908529637634  0.1938412655999461  0.003945826500529659         1.0000   
         C         C         1.0       0.5492136818739176  0.03049498821815133           0.9503049723649486 1.0000   
         C         C         1.0       0.5426408083837488  0.015859565089195726         0.9770988388281735 1.0000   
         H         H         1.0       0.5435823781390074  0.02244224576675724           0.9303386790233035 1.0000   
         H         H         1.0       0.5686879159477793  0.0313089995546012  0.9496039065216008 1.0000   
         H         H         1.0       0.5489184894050637  0.025737968306965398         0.995504991783431  1.0000   
         H         H         1.0       0.5224012055993497  0.017544322600081097         0.9805457344243209 1.0000   
         C         C         1.0       0.47999385167095104           0.9805180796751446 0.6207902501218185 1.0000   
         C         C         1.0       0.46535564319726197           0.002008574513566508         0.6355693054941526 1.0000   
         H         H         1.0       0.4747225716121922  0.9755488639477423  0.5996001529741662 1.0000   
         H         H         1.0       0.4762735614631246  0.9642493710009995  0.6332974913311222 1.0000   
         H         H         1.0       0.4720119590143278  0.0066501368767417635        0.6569718045079874 1.0000   
         H         H         1.0       0.4469492580839837  0.9944679845968323  0.6372371536051645 1.0000   
         C         C         1.0       0.3814529484958118  0.04802232870457179           0.8159391975572494 1.0000   
         C         C         1.0       0.3880659729237644  0.07495893147119004           0.8126897214889169 1.0000   
         H         H         1.0       0.3900072301277793  0.03967956085271451           0.8342688277864582 1.0000   
         H         H         1.0       0.3897407760017064  0.0375184156199555  0.7981420287188393 1.0000   
         H         H         1.0       0.3785862598378548  0.08174623324989616           0.7944922416254795 1.0000   
         H         H         1.0       0.3806877756413932  0.08744078797770238           0.8290355723421715 1.0000   
         C         C         1.0       0.5466904294870831  0.2296034826312527  0.7932047039755327 1.0000   
         C         C         1.0       0.5558451637863946  0.2547287629334112  0.7842537715138704 1.0000   
         H         H         1.0       0.5276203218435865  0.23197628051119643           0.7985066118185139 1.0000   
         H         H         1.0       0.555432047141969   0.22434251715474715           0.8126835256276594 1.0000   
         H         H         1.0       0.5414722963262532  0.26697064833295353           0.7852687139676018 1.0000   
         H         H         1.0       0.5606785031787619  0.2538279326864315  0.7621313565721869 1.0000   
         C         C         1.0       0.6299730226825742  0.09405614489269398           0.6877183594246797 1.0000   
         C         C         1.0       0.6346207912286482  0.08223592881266795           0.7170217999158146 1.0000   
         H         H         1.0       0.6293638976965436  0.08022553267139454           0.6698344852919146 1.0000   
         H         H         1.0       0.6462283753989693  0.10451142159176796           0.680999106497124  1.0000   
         H         H         1.0       0.6227945350362095  0.08756595957272117           0.7368811829809835 1.0000   
         H         H         1.0       0.6500866114173964  0.09070366012517828           0.728438267253918  1.0000   
         C         C         1.0       0.5006871905675667  0.19774878355928463           0.8585702874493156 1.0000   
         C         C         1.0       0.48860057549600777           0.19589820232988392          0.8881591975171722 1.0000   
         H         H         1.0       0.4956491826092117  0.2138283072338274  0.8468274483950446 1.0000   
         H         H         1.0       0.5198049882642622  0.2021691038281447  0.8642865088489884 1.0000   
         H         H         1.0       0.46953069387245616           0.19841069310490808          0.8822936483363322 1.0000   
         H         H         1.0       0.49315027159928343           0.21367370472548808          0.8995037479016593 1.0000   
         C         C         1.0       0.49925717861691465           0.18889581009645573          0.6097419643086774 1.0000   
         C         C         1.0       0.5034751776842966  0.17733119980720755           0.5801397014053561 1.0000   
         H         H         1.0       0.4794918932591137  0.1925171226093581  0.6135776414863475 1.0000   
         H         H         1.0       0.5086899809953007  0.20745194490578278           0.6072669109424759 1.0000   
         H         H         1.0       0.5221851828292386  0.17271399098446719           0.5770773743984975 1.0000   
         H         H         1.0       0.4977676961782805  0.18993514405623288           0.562977194556334  1.0000   
         C         C         1.0       0.5780394919594001  0.045751241526418074         0.8478357670266422 1.0000   
         C         C         1.0       0.5535880987065158  0.031472597332918406         0.8508164409587474 1.0000   
         H         H         1.0       0.577346694949264   0.06476505572113123           0.855060686191815  1.0000   
         H         H         1.0       0.5836263781671294  0.04638119599497159           0.8248509655875663 1.0000   
         H         H         1.0       0.5550770684874611  0.012162202229464292         0.84118583493922   1.0000   
         H         H         1.0       0.548360597809201   0.027434496341928627         0.8723957671492848 1.0000

