data_0
_chemical_formula_structural 
                                        C6H4C38H24C6H4C38H24C6H4C38H24C6H4C38H24C6H4C38H24C6H4C38H24C6H4C38H24C6H4C38H24C6H4C38H24C6H4C38H24C6H4C38H24C6H4C38H24C6H4C38H24C6H4C38H24C6H4C38H24C6H4C38H24C6H4C38H24C6H4C38H24C6H4C38H24C6H4C38H24C6H4C38H24C6H4C38H24C6H4C38H24C6H4C38H24C6H4C38H24C6H4C38H24C6H4C38H24C6H4C38H24C6H4C38H24C6H4C38H24C6H4C38H24C6H4C38H24C2H4C2H4C2H4C2H4C2H4C2H4C2H4C2H4C2H4C2H4C2H4C2H4C2H4C2H4C2H4C2H4C2H4C2H4C2H4C2H4C2H4C2H4C2H4C2H4C2H4C2H4C2H4C2H4C2H4C2H4C2H4C2H4C2H4C2H4C2H4C2H4C2H4C2H4C2H4C2H4C2H4C2H4C2H4C2H4C2H4C2H4C2H4C2H4C2H4C2H4C2H4C2H4C2H4C2H4C2H4C2H4C2H4C2H4C2H4C2H4C2H4C2H4C2H4C2H4C2H4C2H4C2H4C2H4C2H4C2H4C2H4C2H4C2H4C2H4C2H4C2H4C2H4C2H4C2H4C2H4C2H4C2H4C2H4C2H4C2H4C2H4C2H4C2H4C2H4C2H4C2H4C2H4C2H4C2H4C2H4C2H4
_chemical_formula_sum                   'C1600 H1280'
_cell_length_a                          38.14158556985804
_cell_length_b                          39.05902635406121
_cell_length_c                          46.243498418459005
_cell_angle_alpha                       90.46383456584398
_cell_angle_beta                        91.29973337477206
_cell_angle_gamma                       90.0867130302918
_space_group_name_H-M_alt               'P 1'
_space_group_IT_number                  1
loop_
  _space_group_symop_operation_xyz
         'x, y, z' 
loop_
  _atom_site_type_symbol
  _atom_site_label
  _atom_site_symmetry_multiplicity
  _atom_site_fract_x
  _atom_site_fract_y
  _atom_site_fract_z
  _atom_site_occupancy
         C         C         1.0       0.5424564051827088  0.7851876614960182  0.17591448103377186          1.0000   
         C         C         1.0       0.5401153849432739  0.7537999950861675  0.18922813378564202          1.0000   
         C         C         1.0       0.5222213153836056  0.7511887960872468  0.21538187931393693          1.0000   
         C         C         1.0       0.504981534614306   0.779577902710193   0.22642454334668896          1.0000   
         C         C         1.0       0.5066872312302927  0.8104871828794972  0.21257652509623753          1.0000   
         C         C         1.0       0.5244773502760307  0.8129215579725617  0.18682350166082182          1.0000   
         H         H         1.0       0.5504549806955363  0.7317591092814462  0.17643668926777129          1.0000   
         H         H         1.0       0.51901633541216    0.7279235808577516  0.2254659929788974 1.0000   
         H         H         1.0       0.49115990778111973           0.8344730655981949 0.21790799106151454          1.0000   
         H         H         1.0       0.5218624086594384  0.8373171953704329  0.1777887007276147 1.0000   
         C         C         1.0       0.5140096063792452  0.8283444543808735  0.2798597595683275 1.0000   
         C         C         1.0       0.48434953322939717           0.807814447340241  0.27515076299859326          1.0000   
         C         C         1.0       0.4565179754968108  0.8167089320882142  0.29200802467949427          1.0000   
         C         C         1.0       0.45769363898387505           0.845327893314404  0.30988453603709765          1.0000   
         C         C         1.0       0.487264173920227   0.8654913552233081  0.3122235199067645 1.0000   
         C         C         1.0       0.5141263823236065  0.8577547984783247  0.2960680522326586 1.0000   
         C         C         1.0       0.4811315219917637  0.7752350276257745  0.25412836618613344          1.0000   
         C         C         1.0       0.49303998575621    0.7467134015063481  0.2748636493905002 1.0000   
         C         C         1.0       0.4692643489495422  0.7277391202966987  0.2899646579294402 1.0000   
         C         C         1.0       0.4786578934067276  0.7057883775099582  0.3131159238081735 1.0000   
         C         C         1.0       0.5142307644581106  0.7041909844380734  0.32195057308232583          1.0000   
         C         C         1.0       0.5387614882518492  0.7214623464673177  0.3063084887675906 1.0000   
         C         C         1.0       0.5287831091387244  0.7433356233125945  0.284806605636335  1.0000   
         C         C         1.0       0.424332983114793   0.7985862963601282  0.22811135063602433          1.0000   
         C         C         1.0       0.3976443771608013  0.7948648240202985  0.2089685272825777 1.0000   
         C         C         1.0       0.39028672888994853           0.762301472190578  0.19614710386525508          1.0000   
         C         C         1.0       0.4072563946711603  0.7346157019425069  0.20896498141622122          1.0000   
         C         C         1.0       0.43352185237738966           0.7397543044995758 0.2296148470843635 1.0000   
         C         C         1.0       0.443091495289618   0.7707642317729909  0.23931899372534793          1.0000   
         C         C         1.0       0.36333477984542095           0.7566988947337346 0.1694920033586763 1.0000   
         C         C         1.0       0.2720439801740896  0.7397992377400394  0.2250666789580145 1.0000   
         C         C         1.0       0.27395015909283355           0.7695264897687776 0.20869131862694323          1.0000   
         C         C         1.0       0.3030984184990163  0.7745453284230273  0.19236293057208942          1.0000   
         C         C         1.0       0.3279625719771754  0.7498996004007428  0.1882433276312329 1.0000   
         C         C         1.0       0.3219201610380051  0.7177319610933436  0.20165219383922142          1.0000   
         C         C         1.0       0.2956386587354456  0.7139037313251564  0.22074794619078456          1.0000   
         C         C         1.0       0.3718374312867795  0.725533254130946   0.14679574668010648          1.0000   
         C         C         1.0       0.4055107432137697  0.7154373702038107  0.14342040239431503          1.0000   
         C         C         1.0       0.41293380297194116           0.6861244771174597 0.12678315412852836          1.0000   
         C         C         1.0       0.38587572694779126           0.6649238851686384 0.1171652642997744 1.0000   
         C         C         1.0       0.3519893011919792  0.6755030032343581  0.1184873789232505 1.0000   
         C         C         1.0       0.344866441764722   0.7044305419589649  0.13380698134555954          1.0000   
         C         C         1.0       0.3317528299035879  0.7957023474365142  0.129953785294333  1.0000   
         C         C         1.0       0.3307837550562318  0.8208225277725991  0.10940845022332782          1.0000   
         C         C         1.0       0.35905550198758984           0.8418284009886715 0.1079418566309303 1.0000   
         C         C         1.0       0.3899043252519834  0.8353340671888848  0.12349201239000225          1.0000   
         C         C         1.0       0.3902534336227051  0.8090161496307571  0.14340723928125626          1.0000   
         C         C         1.0       0.3613844115750972  0.7883507660834108  0.14770545621226838          1.0000   
         H         H         1.0       0.5374643863657443  0.825028554605454   0.26688517808266754          1.0000   
         H         H         1.0       0.433024881114134   0.8007498165174559  0.29203290029775103          1.0000   
         H         H         1.0       0.43515032247177265           0.8515965178223006 0.32334486269066925          1.0000   
         H         H         1.0       0.5372254673822853  0.8746999932722398  0.29598123741111626          1.0000   
         H         H         1.0       0.4409702422303685  0.731575835581048   0.2884115941262662 1.0000   
         H         H         1.0       0.4601598750721829  0.690602155141356   0.32472732495505485          1.0000   
         H         H         1.0       0.5655516516288809  0.7239477650472342  0.3143693015823827 1.0000   
         H         H         1.0       0.5478066720085931  0.7594913565374531  0.275962050208162  1.0000   
         H         H         1.0       0.42892556412426097           0.8267591478783384 0.23508061473550218          1.0000   
         H         H         1.0       0.38079703727155084           0.8162191665338933 0.20294069766177356          1.0000   
         H         H         1.0       0.4015784425069666  0.7080858227214346  0.20047509041633746          1.0000   
         H         H         1.0       0.44783908809613265           0.7171059612934776 0.23691817807279378          1.0000   
         H         H         1.0       0.25207135158885563           0.7874336298949682 0.20916357491629592          1.0000   
         H         H         1.0       0.30521018255211746           0.7986989840214709 0.181360038057371  1.0000   
         H         H         1.0       0.3405034866427638  0.6988802182808832  0.1988413699195826 1.0000   
         H         H         1.0       0.289106672934624   0.6901425433645206  0.23190713789620518          1.0000   
         H         H         1.0       0.4283716982859233  0.7286892545833081  0.1519115265882986 1.0000   
         H         H         1.0       0.43837508624432875           0.6798492170027681 0.12199148230822553          1.0000   
         H         H         1.0       0.33042198132041106           0.6593592407464693 0.11073111674099381          1.0000   
         H         H         1.0       0.31696167915238865           0.7120117136476959 0.13228835426941718          1.0000   
         H         H         1.0       0.30846202170121323           0.7800835005799988 0.1321930728945719 1.0000   
         H         H         1.0       0.3091642139013272  0.8240272336624719  0.09513775636167322          1.0000   
         H         H         1.0       0.41530616034923357           0.8496747773861896 0.12369463047312212          1.0000   
         H         H         1.0       0.4156010679621854  0.8064080663028883  0.15495713449101953          1.0000   
         C         C         1.0       0.37283011372701236           0.7563450327661496 0.9231527681193689 1.0000   
         C         C         1.0       0.3899761684466349  0.7868845445459345  0.9275998872754713 1.0000   
         C         C         1.0       0.41735505761668007           0.7894649613709304 0.9474402591163272 1.0000   
         C         C         1.0       0.42467832872478123           0.7629551942929784 0.9655612658654618 1.0000   
         C         C         1.0       0.41110420316883795           0.7321360253250179 0.9580243290538848 1.0000   
         C         C         1.0       0.3841901619100715  0.7282810875126781  0.9376766841956569 1.0000   
         H         H         1.0       0.3830726410348854  0.8086893423058789  0.9138416781022167 1.0000   
         H         H         1.0       0.42805370253551667           0.8147449878167458 0.9498711575083618 1.0000   
         H         H         1.0       0.4212020635819125  0.708592014944227   0.967155122867759  1.0000   
         H         H         1.0       0.3755876306249678  0.7033403420525116  0.9341014260778218 1.0000   
         C         C         1.0       0.4367915751081436  0.7191980203418152  0.027878404871890528         1.0000   
         C         C         1.0       0.46103837493971844           0.739044307174627  0.016123913338336626         1.0000   
         C         C         1.0       0.4952605290300887  0.7357522319341675  0.029617103076448048         1.0000   
         C         C         1.0       0.5046060793678805  0.7094147866775589  0.04819893983061263          1.0000   
         C         C         1.0       0.4781077503873004  0.6876951112793367  0.05671346159955459          1.0000   
         C         C         1.0       0.4436684656236542  0.6944773743844604  0.047944074859693986         1.0000   
         C         C         1.0       0.45034962519450283           0.7686624753854217 0.993799860945955  1.0000   
         C         C         1.0       0.4316141946885269  0.7951459735969665  0.01482029782210148          1.0000   
         C         C         1.0       0.45294912966821343           0.8161058382498338 0.030628179171805492         1.0000   
         C         C         1.0       0.43865986354017045           0.8406319381593806 0.04808977621785515          1.0000   
         C         C         1.0       0.40276743458210185           0.8441679683427437 0.049295662875226354         1.0000   
         C         C         1.0       0.381903946346098   0.8206898151887678  0.03453410906530241          1.0000   
         C         C         1.0       0.39576065133310157           0.795612957443367  0.017239353692783066         1.0000   
         C         C         1.0       0.5015642585188693  0.7546059762253051  0.9620433952498566 1.0000   
         C         C         1.0       0.5335534783375592  0.7596370359322934  0.9507580056476075 1.0000   
         C         C         1.0       0.5508907505189057  0.7914479815049775  0.9527984236627655 1.0000   
         C         C         1.0       0.5304742963899239  0.8186687417084951  0.9630405056359859 1.0000   
         C         C         1.0       0.4976513529722858  0.8136003133382309  0.9732834729057446 1.0000   
         C         C         1.0       0.48418354307041694           0.780498618610031  0.9762816190356426 1.0000   
         C         C         1.0       0.5931525543863783  0.7907068134704671  0.9513568797967028 1.0000   
         C         C         1.0       0.6163199475228537  0.7677214724382495  0.043423290590378416         1.0000   
         C         C         1.0       0.6075195711033522  0.7417116821066614  0.02418545391359639          1.0000   
         C         C         1.0       0.5993194698771873  0.7479190540930032  0.9955935618252963 1.0000   
         C         C         1.0       0.603214528576716   0.7812645473475611  0.9842525565202134 1.0000   
         C         C         1.0       0.6091096109800715  0.8077684311716898  0.00437712587164274          1.0000   
         C         C         1.0       0.6137828606749751  0.8007858744801527  0.03301735408123663          1.0000   
         C         C         1.0       0.612655256218637   0.8237326202940644  0.9397206005622076 1.0000   
         C         C         1.0       0.5984981268379616  0.8488278592152408  0.9222857886771716 1.0000   
         C         C         1.0       0.6160406585929172  0.8777077481375083  0.915414533014997  1.0000   
         C         C         1.0       0.6509791248060934  0.8787338895109382  0.9196666277918322 1.0000   
         C         C         1.0       0.6682326341607018  0.8526740078745173  0.9343954917007486 1.0000   
         C         C         1.0       0.6493515133684269  0.8252432959370039  0.9442678172957197 1.0000   
         C         C         1.0       0.6275046606788013  0.740621917455357   0.9325792215745211 1.0000   
         C         C         1.0       0.6255939609994562  0.7102420238701079  0.9163312733481123 1.0000   
         C         C         1.0       0.6063665363604457  0.709264883135037   0.8913548856979585 1.0000   
         C         C         1.0       0.5890839919650404  0.7371072644417997  0.8808433014612647 1.0000   
         C         C         1.0       0.5872117231419238  0.765186812765554   0.8995993883618025 1.0000   
         C         C         1.0       0.6043230404029258  0.7660245304957963  0.9267853455691025 1.0000   
         H         H         1.0       0.40985673161811537           0.7225241266508161 0.020811089143450756         1.0000   
         H         H         1.0       0.5158608883363411  0.750627105648927   0.021894856875458002         1.0000   
         H         H         1.0       0.5310483443726256  0.7055482528741214  0.05656957252861883          1.0000   
         H         H         1.0       0.42125331531169286           0.6823210003719131 0.05672432893534651          1.0000   
         H         H         1.0       0.48111581752547117           0.813619082788218  0.0297745131650895 1.0000   
         H         H         1.0       0.45411995523012516           0.8579490061566546 0.06078571748072403          1.0000   
         H         H         1.0       0.35407426397112507           0.8244435240661621 0.03245257463692486          1.0000   
         H         H         1.0       0.37943755808039503           0.7759563190267711 0.008400335483793375         1.0000   
         H         H         1.0       0.49261474363537117           0.7289269512754887 0.9646431454489269 1.0000   
         H         H         1.0       0.5461822111805741  0.7377484959680848  0.9414725813307129 1.0000   
         H         H         1.0       0.5420505035305692  0.842590205567587   0.9678352792968967 1.0000   
         H         H         1.0       0.48373584769512273           0.835181130608339  0.9826142520181065 1.0000   
         H         H         1.0       0.6098380362770573  0.7157949029346314  0.03209681291688726          1.0000   
         H         H         1.0       0.5930495140931192  0.7258160066730069  0.9818107229899046 1.0000   
         H         H         1.0       0.6111055603890608  0.832664459578461   0.9969218112750367 1.0000   
         H         H         1.0       0.6162074147465888  0.8206829857989676  0.04965465780458311          1.0000   
         H         H         1.0       0.5699426518711578  0.8452659968292102  0.9166327115108481 1.0000   
         H         H         1.0       0.6043144203476895  0.898881805245813   0.9033750589698147 1.0000   
         H         H         1.0       0.6959502285609285  0.8550371998177362  0.9389924115084612 1.0000   
         H         H         1.0       0.6640813367378189  0.8061857261205667  0.9574265468821713 1.0000   
         H         H         1.0       0.6432004078964364  0.7391287742938247  0.9513737713630588 1.0000   
         H         H         1.0       0.6392178683635885  0.6885603157350002  0.9274003995145446 1.0000   
         H         H         1.0       0.571278626862822   0.7375072946257027  0.8619057782406468 1.0000   
         H         H         1.0       0.5692866968241161  0.7864975368583241  0.8966109972808535 1.0000   
         C         C         1.0       0.7606992352792439  0.5752284979778987  0.1257824273733432 1.0000   
         C         C         1.0       0.7424589609071267  0.5624013254400936  0.14864090804028773          1.0000   
         C         C         1.0       0.7442539553403997  0.5782999973505198  0.17538428054872823          1.0000   
         C         C         1.0       0.7639140281437243  0.6085686573541647  0.17926142328243075          1.0000   
         C         C         1.0       0.7814409477727269  0.6222804298421616  0.15529362505163663          1.0000   
         C         C         1.0       0.7780409737743352  0.6053709861685848  0.12913109995533542          1.0000   
         H         H         1.0       0.7284693640883342  0.5366330704709494  0.14728404031129777          1.0000   
         H         H         1.0       0.7328916618752902  0.5660374954215572  0.19482621123577895          1.0000   
         H         H         1.0       0.7931014104898069  0.6472752837692751  0.15639343431426397          1.0000   
         H         H         1.0       0.7894068021698615  0.6179358997356073  0.11039232639508215          1.0000   
         C         C         1.0       0.7928983011427493  0.5843311002445929  0.2381752170990077 1.0000   
         C         C         1.0       0.7968977617933617  0.6153993064464977  0.22484823527860567          1.0000   
         C         C         1.0       0.8295795780077676  0.6290131969280922  0.22184686094536193          1.0000   
         C         C         1.0       0.8582821469441994  0.6130918168238098  0.2334151896461298 1.0000   
         C         C         1.0       0.8557138906561289  0.5829395067858462  0.24849928663999785          1.0000   
         C         C         1.0       0.82225290974793    0.5675183864387378  0.2510136088205961 1.0000   
         C         C         1.0       0.7633066309936817  0.6319982105919235  0.20821078986161853          1.0000   
         C         C         1.0       0.7305597841368975  0.630642919219315   0.2295798874128521 1.0000   
         C         C         1.0       0.7362246739847252  0.6436395540372264  0.25664767139661815          1.0000   
         C         C         1.0       0.7085287544899724  0.6528071832277843  0.27264063787944187          1.0000   
         C         C         1.0       0.6747248167788467  0.6511093159515575  0.2621638173511809 1.0000   
         C         C         1.0       0.6673943647368262  0.637077908088672   0.2358724320080355 1.0000   
         C         C         1.0       0.6950749042872623  0.628027205086851   0.21817096585750734          1.0000   
         C         C         1.0       0.7818103460753207  0.6954233231872852  0.2187440663463044 1.0000   
         C         C         1.0       0.7741427224780323  0.7306141674895624  0.21535791538334814          1.0000   
         C         C         1.0       0.7467639287700741  0.742723375484537   0.19706606269413077          1.0000   
         C         C         1.0       0.7307416610127202  0.7184322148717454  0.17948031025130085          1.0000   
         C         C         1.0       0.7376121686789269  0.6847964055502563  0.18074496480792324          1.0000   
         C         C         1.0       0.7625357368046788  0.6723999718672315  0.2010487351807887 1.0000   
         C         C         1.0       0.7377395213236378  0.7812772522602154  0.19421230078352086          1.0000   
         C         C         1.0       0.7209406504638469  0.842760779147615   0.2718187152071529 1.0000   
         C         C         1.0       0.7276923054668151  0.8573656348156156  0.24514710738454187          1.0000   
         C         C         1.0       0.7380850427444463  0.8382538697383299  0.22202042944187797          1.0000   
         C         C         1.0       0.7352768654333377  0.8036489163368519  0.2225681882053447 1.0000   
         C         C         1.0       0.7232403016993548  0.7883822870220556  0.24727619620707186          1.0000   
         C         C         1.0       0.7178356276360942  0.8083262473936464  0.27261838732342114          1.0000   
         C         C         1.0       0.6981449332225639  0.788759268516642   0.18135624106513698          1.0000   
         C         C         1.0       0.6935495923877459  0.8151008154901982  0.16194668814133265          1.0000   
         C         C         1.0       0.6599030344231553  0.8210623476486839  0.15017352708406198          1.0000   
         C         C         1.0       0.6309750537713966  0.8007113706000756  0.15769291957728598          1.0000   
         C         C         1.0       0.636731229665501   0.778094701774123   0.18021638958723757          1.0000   
         C         C         1.0       0.6688992915796177  0.7708205605535456  0.19044178108214324          1.0000   
         C         C         1.0       0.8029794879388074  0.8028969781244246  0.18654722316846173          1.0000   
         C         C         1.0       0.8331940483158556  0.8016423376660623  0.17102975233832965          1.0000   
         C         C         1.0       0.8330099924789872  0.7911190266321044  0.1435947525535264 1.0000   
         C         C         1.0       0.8016437165834407  0.7817002129407618  0.1301651918008094 1.0000   
         C         C         1.0       0.7719356116729371  0.7791874555136482  0.14631581211543382          1.0000   
         C         C         1.0       0.7705536045988239  0.7913161762706636  0.17527032384020935          1.0000   
         H         H         1.0       0.7707251302384353  0.5684839112620315  0.23552872987595383          1.0000   
         H         H         1.0       0.8325358611351715  0.6519974104033038  0.2090361466563025 1.0000   
         H         H         1.0       0.8818681797595386  0.6275573621042481  0.22999354185600368          1.0000   
         H         H         1.0       0.8161818145781767  0.5421878196168084  0.25898459796679063          1.0000   
         H         H         1.0       0.7610802754978215  0.6510604577666449  0.26669547730428494          1.0000   
         H         H         1.0       0.7122838219115812  0.6668380838525984  0.29291235822560746          1.0000   
         H         H         1.0       0.639821261263498   0.636991213221172   0.22757552120594862          1.0000   
         H         H         1.0       0.6863852379144172  0.622972739235928   0.19578584993126188          1.0000   
         H         H         1.0       0.7970447598884564  0.6857035873376527  0.236859646278544  1.0000   
         H         H         1.0       0.788197575136791   0.7472721180468238  0.22903112980109272          1.0000   
         H         H         1.0       0.7136028897015091  0.7269998639392217  0.1621994688351705 1.0000   
         H         H         1.0       0.72233057885327    0.6671494200620534  0.16684155668982845          1.0000   
         H         H         1.0       0.7262800790481012  0.8852266854808181  0.24532301518731447          1.0000   
         H         H         1.0       0.746111963919536   0.8510617034144886  0.20243453779483156          1.0000   
         H         H         1.0       0.7202556399564446  0.759073330224974   0.25091732373453796          1.0000   
         H         H         1.0       0.7132389735705249  0.7901070441565653  0.2904992823936318 1.0000   
         H         H         1.0       0.713528630807203   0.8306749259571828  0.1524712968631006 1.0000   
         H         H         1.0       0.6553197390878344  0.8428114397496442  0.13558253206579066          1.0000   
         H         H         1.0       0.6129716110392242  0.7681879892729121  0.19090827810144684          1.0000   
         H         H         1.0       0.6712822419741457  0.7505851879119688  0.2069688941202136 1.0000   
         H         H         1.0       0.8055376632364389  0.8095322513485957  0.20905962387791577          1.0000   
         H         H         1.0       0.8573763515005622  0.8039235997975984  0.1828125948208095 1.0000   
         H         H         1.0       0.7999179483921434  0.7733954473066977  0.1094915578967087 1.0000   
         H         H         1.0       0.7499153581256423  0.765981422367333   0.1363601131528586 1.0000   
         C         C         1.0       0.783315438449847   0.795704762807153   0.9265053674390136 1.0000   
         C         C         1.0       0.8137267012432337  0.7873120730838465  0.9415052940797528 1.0000   
         C         C         1.0       0.8115618344600553  0.7677198394734548  0.9668051869869325 1.0000   
         C         C         1.0       0.7788823332880809  0.7613914182215773  0.9798208352512028 1.0000   
         C         C         1.0       0.7503249234748133  0.7707053309476192  0.9631375724359088 1.0000   
         C         C         1.0       0.7520205365705612  0.7873165075051481  0.9381056016379242 1.0000   
         H         H         1.0       0.8390525740746846  0.794809357858285   0.9331533749823239 1.0000   
         H         H         1.0       0.8346029517540017  0.7585680011576058  0.9804111681622389 1.0000   
         H         H         1.0       0.7232511878891117  0.7657294181960389  0.9689383987458623 1.0000   
         H         H         1.0       0.7291190186886788  0.7966909728109175  0.9276831477803709 1.0000   
         C         C         1.0       0.7296652638587187  0.784808893107259   0.03062997268048484          1.0000   
         C         C         1.0       0.7457548540493244  0.7533093384454345  0.031165871758378927         1.0000   
         C         C         1.0       0.7346245612419906  0.7304963643263128  0.051548467953377974         1.0000   
         C         C         1.0       0.7063023180989553  0.7384420277015378  0.06982244855565778          1.0000   
         C         C         1.0       0.6907204972125206  0.7706323990182418  0.06828670017481331          1.0000   
         C         C         1.0       0.7018697445958156  0.792588449531364   0.0474639458855981 1.0000   
         C         C         1.0       0.7768173486094742  0.7425075817670886  0.010480102987722395         1.0000   
         C         C         1.0       0.8091187729286435  0.75394790105918    0.029893050257786546         1.0000   
         C         C         1.0       0.8268630520898789  0.7315061659985184  0.04800079100700683          1.0000   
         C         C         1.0       0.850918805598727   0.7431077493146123  0.06977103659224526          1.0000   
         C         C         1.0       0.8563772900046572  0.7776597252676876  0.07490422613656045          1.0000   
         C         C         1.0       0.8391590431207236  0.8008177913479757  0.057918428408138434         1.0000   
         C         C         1.0       0.816826861015877   0.7896005680722958  0.03642570509375753          1.0000   
         C         C         1.0       0.7413587254021803  0.6871443780974879  0.9939414834504242 1.0000   
         C         C         1.0       0.740288731101363   0.6542552917000911  0.9841346453712458 1.0000   
         C         C         1.0       0.7704370932120905  0.6384440397642208  0.9744014596004852 1.0000   
         C         C         1.0       0.8022880465145467  0.6565795568857652  0.9774888308083899 1.0000   
         C         C         1.0       0.8034482019154909  0.6865755923720941  0.9898087312360643 1.0000   
         C         C         1.0       0.7745469324220996  0.704112408339531   0.9993700086607491 1.0000   
         C         C         1.0       0.7645619171678016  0.6035400222642489  0.9566304191979719 1.0000   
         C         C         1.0       0.7087798666530163  0.526013854068469   0.005847400517281276         1.0000   
         C         C         1.0       0.7056923723821137  0.5267555353507175  0.9758827918895578 1.0000   
         C         C         1.0       0.7224853371112955  0.5511363999946185  0.9597778271478078 1.0000   
         C         C         1.0       0.7407282247923604  0.5771910693178058  0.9742608811208732 1.0000   
         C         C         1.0       0.7460840298242719  0.5741272904204133  0.004278531158498744         1.0000   
         C         C         1.0       0.7294793046466178  0.5502165663410359  0.019858493456763826         1.0000   
         C         C         1.0       0.7978665157815759  0.5804461878646139  0.9506726533394345 1.0000   
         C         C         1.0       0.827091899618706   0.5793447432435743  0.9683152724273553 1.0000   
         C         C         1.0       0.857716540950781   0.563177019458322   0.9601761289280838 1.0000   
         C         C         1.0       0.857181521715923   0.5462093346999015  0.9335522353094324 1.0000   
         C         C         1.0       0.8267294655033534  0.5425206234344697  0.9171744574065219 1.0000   
         C         C         1.0       0.7974978092441964  0.559973022743569   0.9263326979020391 1.0000   
         C         C         1.0       0.7121398003180355  0.6198734747867679  0.9222873446634359 1.0000   
         C         C         1.0       0.6983288579563419  0.641557152306017   0.9018581646697275 1.0000   
         C         C         1.0       0.7213382181447495  0.6573623089352602  0.8822733007923923 1.0000   
         C         C         1.0       0.75768685169381    0.652874660912996   0.8843996249200848 1.0000   
         C         C         1.0       0.7698224746524501  0.6342595299107272  0.9070896451203223 1.0000   
         C         C         1.0       0.7490781379422456  0.6179932239205375  0.9275922433752715 1.0000   
         H         H         1.0       0.7358853849245897  0.8057367468590118  0.01616473042867783          1.0000   
         H         H         1.0       0.747843956997568   0.7058478141116435  0.05306593114526992          1.0000   
         H         H         1.0       0.6985257924173912  0.7212991726025089  0.08763176654610882          1.0000   
         H         H         1.0       0.6896662505319566  0.8158876882843664  0.04674138937965888          1.0000   
         H         H         1.0       0.8243209344717124  0.7056161858256674  0.04569539017225521          1.0000   
         H         H         1.0       0.8657685648896623  0.7241594758197859  0.08316232496574338          1.0000   
         H         H         1.0       0.840957165462937   0.8270045578301904  0.06517711198968512          1.0000   
         H         H         1.0       0.8009612819484676  0.8081059752672652  0.024315500584620287         1.0000   
         H         H         1.0       0.7160497357083707  0.6960652992633454  0.9999503151499928 1.0000   
         H         H         1.0       0.7151954230497859  0.6399107626308915  0.9836329174432368 1.0000   
         H         H         1.0       0.8252724044953221  0.6432345915222707  0.9668444891275513 1.0000   
         H         H         1.0       0.8304766149601077  0.6989783491419086  0.9909023970802918 1.0000   
         H         H         1.0       0.6911554773029661  0.5058665053157498  0.963979616811372  1.0000   
         H         H         1.0       0.722254945608977   0.5491413094078532  0.9375985372729878 1.0000   
         H         H         1.0       0.7609025374491112  0.5916450922742506  0.019554396631650706         1.0000   
         H         H         1.0       0.7283125922195768  0.5509571017362666  0.04386850556289268          1.0000   
         H         H         1.0       0.8276709267923766  0.5920499683666748  0.9891923984324594 1.0000   
         H         H         1.0       0.8797541167560772  0.567054066530119   0.9744049774137062 1.0000   
         H         H         1.0       0.8240010686560861  0.5289229041417868  0.8976505771522476 1.0000   
         H         H         1.0       0.7766046633287043  0.5590867409288293  0.9094950995840476 1.0000   
         H         H         1.0       0.6928224211594399  0.6105435881877466  0.9373392053335295 1.0000   
         H         H         1.0       0.6721992528519202  0.6482188877869399  0.8998074082276097 1.0000   
         H         H         1.0       0.774607574647738   0.6664992695395554  0.8699896636320192 1.0000   
         H         H         1.0       0.7984116368368963  0.633342928106944   0.9121438364187581 1.0000   
         C         C         1.0       0.5863961042932426  0.4236345092972774  0.15679094033800287          1.0000   
         C         C         1.0       0.6021858925368928  0.4532358536515367  0.16955914817493534          1.0000   
         C         C         1.0       0.6236130943636697  0.45118099900123476           0.1943444468565421 1.0000   
         C         C         1.0       0.631779603994235   0.41890817266142094           0.20575557451180776          1.0000   
         C         C         1.0       0.6209320604929478  0.3906534171439485  0.18945952732281207          1.0000   
         C         C         1.0       0.5974800590018505  0.39282142042917556           0.16714772248309162          1.0000   
         H         H         1.0       0.5943860847610398  0.47763606990704643           0.1633891785184627 1.0000   
         H         H         1.0       0.6334040557563442  0.4754495394781872  0.2036705354312715 1.0000   
         H         H         1.0       0.6270469009850054  0.36600290871192953           0.19826989911961984          1.0000   
         H         H         1.0       0.5879876131341862  0.3678863250960273  0.15874962351746796          1.0000   
         C         C         1.0       0.610248993232054   0.3759813919226444  0.2577185378923851 1.0000   
         C         C         1.0       0.6448545725008429  0.3813376083541353  0.2525200715619144 1.0000   
         C         C         1.0       0.6679206057692236  0.3598685249474363  0.2664837128815059 1.0000   
         C         C         1.0       0.6561285364582171  0.3316295005317636  0.28143657287946394          1.0000   
         C         C         1.0       0.6212183759793305  0.32648591631583734           0.2857912366845829 1.0000   
         C         C         1.0       0.5984278874818632  0.3505023449550512  0.2738301950024418 1.0000   
         C         C         1.0       0.6559365701219728  0.41336022520115634           0.2335305415419611 1.0000   
         C         C         1.0       0.6555944471266818  0.44384550318785154           0.2582242028037845 1.0000   
         C         C         1.0       0.6852350171659388  0.4474930850774655  0.2760238257131083 1.0000   
         C         C         1.0       0.6842142629248276  0.4720204144864614  0.2969442114846828 1.0000   
         C         C         1.0       0.6597994516139483  0.4979068849296266  0.2957510191625679 1.0000   
         C         C         1.0       0.6308032228961533  0.49444875542787753           0.27673547475507804          1.0000   
         C         C         1.0       0.6272990757917903  0.46576868041511466           0.26136028288390306          1.0000   
         C         C         1.0       0.7038201951510055  0.37800298335143817           0.20625208753587357          1.0000   
         C         C         1.0       0.7354131662491011  0.3756927868020801  0.19300991820652397          1.0000   
         C         C         1.0       0.7548642050631456  0.4047345542305007  0.18736616328001188          1.0000   
         C         C         1.0       0.7422841654303863  0.43528701047055735           0.19849517334916544          1.0000   
         C         C         1.0       0.7110775997786227  0.43751779610637476           0.2137755676055562 1.0000   
         C         C         1.0       0.6917642512315004  0.40803026467891695           0.21825390172822245          1.0000   
         C         C         1.0       0.789709417806533   0.40242647203071596           0.16753730227570693          1.0000   
         C         C         1.0       0.8671761927456447  0.40806008448351927           0.24034536109082394          1.0000   
         C         C         1.0       0.8497714735411259  0.3764901235088528  0.23512721890471128          1.0000   
         C         C         1.0       0.8256009866871469  0.3751033270946983  0.2122066745171995 1.0000   
         C         C         1.0       0.8174062374524347  0.4031296341358977  0.19590651040561252          1.0000   
         C         C         1.0       0.8302198118662387  0.4344990142545343  0.20539058330609358          1.0000   
         C         C         1.0       0.8551687631043368  0.4370160388355302  0.22663458528279504          1.0000   
         C         C         1.0       0.789909155954606   0.4355204215539085  0.147050254530454  1.0000   
         C         C         1.0       0.7605772415850384  0.4499093254880288  0.13431203884644707          1.0000   
         C         C         1.0       0.7617122563320038  0.4797701753776377  0.12044630242728394          1.0000   
         C         C         1.0       0.7926671452946534  0.4971197431326758  0.11635974878306854          1.0000   
         C         C         1.0       0.8229931131258086  0.4813548033183224  0.12584473300800714          1.0000   
         C         C         1.0       0.8215551686402264  0.4493094218638837  0.13921117611722067          1.0000   
         C         C         1.0       0.8208583990912508  0.34908252033659376           0.1449816040195157 1.0000   
         C         C         1.0       0.8211775915150141  0.3197857032987121  0.12794528497715268          1.0000   
         C         C         1.0       0.793901643090351   0.3135433585562979  0.10972559305191523          1.0000   
         C         C         1.0       0.7645518342247654  0.3354136980508747  0.10858135665918146          1.0000   
         C         C         1.0       0.7624056400668092  0.36328407529188056           0.12721855449921618          1.0000   
         C         C         1.0       0.7919316433695521  0.37045427767411215           0.14615415127029482          1.0000   
         H         H         1.0       0.590155539130755   0.3918796514273602  0.24855367246175933          1.0000   
         H         H         1.0       0.6948960245546777  0.36229531174330043           0.26628157049152407          1.0000   
         H         H         1.0       0.6751870404647811  0.3176754743710803  0.29381947518535523          1.0000   
         H         H         1.0       0.5702433963309751  0.34781620922915607           0.27638599461531244          1.0000   
         H         H         1.0       0.7063552820310699  0.43055054071389903           0.2754344682825363 1.0000   
         H         H         1.0       0.7044065011535672  0.4747604212583552  0.31339135915044786          1.0000   
         H         H         1.0       0.6117640919585688  0.5124734164982676  0.27704986450591085          1.0000   
         H         H         1.0       0.6041248378935085  0.4626173435909257  0.24770419954573053          1.0000   
         H         H         1.0       0.6914714613552848  0.3544362670073956  0.20987324782378178          1.0000   
         H         H         1.0       0.7434862080702389  0.3524266973987229  0.18192584303321707          1.0000   
         H         H         1.0       0.7546137093566639  0.4594068963677922  0.19264392150884424          1.0000   
         H         H         1.0       0.7019014651002277  0.4620597146245054  0.22089765305345602          1.0000   
         H         H         1.0       0.8586974678277862  0.3525665221712319  0.2461102156581163 1.0000   
         H         H         1.0       0.8150350300287278  0.35268879488442834           0.20496278198189652          1.0000   
         H         H         1.0       0.8175178446228366  0.45693013784067266           0.19646712247025228          1.0000   
         H         H         1.0       0.8686857054327868  0.46140031960011063           0.22990547112511875          1.0000   
         H         H         1.0       0.7377874201699263  0.4331339388226621  0.13367542975894503          1.0000   
         H         H         1.0       0.7375934018324003  0.4859304292354679  0.1091480248459704 1.0000   
         H         H         1.0       0.8471828204003855  0.4942832939367863  0.12340857196226748          1.0000   
         H         H         1.0       0.8464042602275861  0.4381366247933723  0.1480030393765813 1.0000   
         H         H         1.0       0.8430495370625705  0.35242811363989773           0.1597792699992818 1.0000   
         H         H         1.0       0.8437528576070676  0.30399465526323527           0.12905465080614367          1.0000   
         H         H         1.0       0.7443470831828882  0.3315651805137194  0.09292888212297264          1.0000   
         H         H         1.0       0.7411575172381595  0.38110054439884233           0.12410372069065778          1.0000   
         C         C         1.0       0.8790854442601852  0.4158438206864156  0.9377562133723678 1.0000   
         C         C         1.0       0.8695321212277649  0.38197911261995565           0.9362418733222375 1.0000   
         C         C         1.0       0.8386513004561111  0.3712801278629798  0.9471268804648928 1.0000   
         C         C         1.0       0.8190069439957431  0.39481113249874655           0.9626725735349222 1.0000   
         C         C         1.0       0.8255827511448839  0.4287987284814314  0.9601081632827827 1.0000   
         C         C         1.0       0.856188312377985   0.4388615998675329  0.9484850649146772 1.0000   
         H         H         1.0       0.8898218114412295  0.3626258031940794  0.9287381396932378 1.0000   
         H         H         1.0       0.833667778786032   0.3433938971569925  0.9469224793685977 1.0000   
         H         H         1.0       0.8123864501197503  0.45089755828237826           0.9690749957922811 1.0000   
         H         H         1.0       0.8616420850024016  0.466358031005276   0.9474321552008493 1.0000   
         C         C         1.0       0.7840727810467026  0.43293753550166053           0.01846134063932303          1.0000   
         C         C         1.0       0.7692386773582226  0.4052845099640587  0.0034789595283757357        1.0000   
         C         C         1.0       0.7350948717936588  0.398218720177535   0.009296808572923476         1.0000   
         C         C         1.0       0.7150897464750031  0.4213946669993606  0.023867489871254755         1.0000   
         C         C         1.0       0.7282562740922656  0.4523071322049602  0.033061541304256536         1.0000   
         C         C         1.0       0.7642484342665016  0.4566283874509936  0.032116795451441416         1.0000   
         C         C         1.0       0.7866271205116234  0.3809475387098346  0.9796413460358123 1.0000   
         C         C         1.0       0.7940985833604192  0.34772852453201947           0.9991670049171143 1.0000   
         C         C         1.0       0.7722472090861334  0.3202063848530134  0.005138794827618254         1.0000   
         C         C         1.0       0.7815085164146196  0.29422763735375645           0.023559447199397843         1.0000   
         C         C         1.0       0.8137070859093749  0.29697510272038985           0.03899973215991048          1.0000   
         C         C         1.0       0.8362311855075669  0.32453968057037225           0.03322699878252888          1.0000   
         C         C         1.0       0.8267768538394336  0.3475483204993245  0.01230272089949791          1.0000   
         C         C         1.0       0.7451948629712924  0.40748254721259414           0.9461527631928032 1.0000   
         C         C         1.0       0.7144791078779559  0.4063481625098537  0.9317772521175126 1.0000   
         C         C         1.0       0.6980499034582794  0.37600612511667925           0.9230079480761603 1.0000   
         C         C         1.0       0.7154290203545416  0.345321766638248   0.9291117148560288 1.0000   
         C         C         1.0       0.7481846204199132  0.34686121511217677           0.9428142338405189 1.0000   
         C         C         1.0       0.7598925357833388  0.37703513208924927           0.9539403456916085 1.0000   
         C         C         1.0       0.6571301933156218  0.3772656857470614  0.9134698092091734 1.0000   
         C         C         1.0       0.6263078124066728  0.3610624399564098  0.0019750870181320934        1.0000   
         C         C         1.0       0.631093529160644   0.39367119717889587           0.9925294762854345 1.0000   
         C         C         1.0       0.6383357717659834  0.39866886774868926           0.9638591963592239 1.0000   
         C         C         1.0       0.6403285611137263  0.37265448954090064           0.9436227041224998 1.0000   
         C         C         1.0       0.6342581872714128  0.3395247462240805  0.9541208340965327 1.0000   
         C         C         1.0       0.6266879879909375  0.3340659848326839  0.9825967226632983 1.0000   
         C         C         1.0       0.6419138315022462  0.35117296440108425           0.8906835049861213 1.0000   
         C         C         1.0       0.6646422911968278  0.3354282163400318  0.8697630413240264 1.0000   
         C         C         1.0       0.6511663918209629  0.3128689479189812  0.8491310249232118 1.0000   
         C         C         1.0       0.615003217659307   0.31068153669058884           0.8461854571607803 1.0000   
         C         C         1.0       0.593134168688206   0.3275665218850245  0.8645891492260388 1.0000   
         C         C         1.0       0.6077653319871246  0.34660345066415355           0.8861240190006096 1.0000   
         C         C         1.0       0.6230761078928059  0.4338727791172598  0.9037017167642849 1.0000   
         C         C         1.0       0.6222153907086881  0.46669432844063474           0.8943741455027373 1.0000   
         C         C         1.0       0.6462721730325541  0.4770196346241233  0.8738058266758216 1.0000   
         C         C         1.0       0.6691179106590364  0.4527751164679718  0.8634950958602693 1.0000   
         C         C         1.0       0.6725045333716523  0.4211087161381118  0.8758108217139347 1.0000   
         C         C         1.0       0.6492218787187098  0.41168412934839765           0.8967053882567624 1.0000   
         H         H         1.0       0.8105920788996168  0.43940358418121883           0.014776815916263342         1.0000   
         H         H         1.0       0.7221671041288896  0.37679931341240763           0.9986569617924573 1.0000   
         H         H         1.0       0.687724710058321   0.4142908247295797  0.02679188928909304          1.0000   
         H         H         1.0       0.7766071560679922  0.4776913772904773  0.04325253099021986          1.0000   
         H         H         1.0       0.7469354828547113  0.3150226299533827  0.9940026288783511 1.0000   
         H         H         1.0       0.763014458024168   0.273965177521386   0.028463645863542775         1.0000   
         H         H         1.0       0.8594077709327208  0.3296899069544018  0.04573909667771515          1.0000   
         H         H         1.0       0.8438376866981044  0.3687495758873838  0.00872676334772815          1.0000   
         H         H         1.0       0.7557504793725841  0.4316286599630881  0.9547141942781094 1.0000   
         H         H         1.0       0.7011533744188715  0.4304461674916487  0.9317892315667841 1.0000   
         H         H         1.0       0.7031438061176635  0.3188071585090023  0.9247470619386111 1.0000   
         H         H         1.0       0.7615373501669145  0.32503866256511316           0.9466693193631894 1.0000   
         H         H         1.0       0.6325053851017648  0.41470617058145026           0.010502065108166203         1.0000   
         H         H         1.0       0.6503670078256718  0.42332502837943986           0.9592109784969534 1.0000   
         H         H         1.0       0.6374984167800694  0.31843422690315093           0.9400172548423232 1.0000   
         H         H         1.0       0.6209529094133788  0.3080192346072046  0.9912961618032747 1.0000   
         H         H         1.0       0.6924901010290435  0.340416403235587   0.8690984102784006 1.0000   
         H         H         1.0       0.6652795935562802  0.3009659216229956  0.8316150190842967 1.0000   
         H         H         1.0       0.5642388616349135  0.32721294228191966           0.863236047758584  1.0000   
         H         H         1.0       0.5907763671501838  0.35777377040645586           0.9031061522769664 1.0000   
         H         H         1.0       0.6023422274500917  0.4286248780960082  0.9200270144743663 1.0000   
         H         H         1.0       0.6034651539190465  0.48596584934458037           0.904628022480704  1.0000   
         H         H         1.0       0.686912114802657   0.4582167205974757  0.8470489758819285 1.0000   
         H         H         1.0       0.6949489213471893  0.4048411224163223  0.8716118336460839 1.0000   
         C         C         1.0       0.4199889711841188  0.6057532183726823  0.15555207131091883          1.0000   
         C         C         1.0       0.4498667583057511  0.597565605461099   0.17142660673338594          1.0000   
         C         C         1.0       0.45039628579980007           0.5952013494125195 0.20076906267303596          1.0000   
         C         C         1.0       0.4202066452352759  0.6009878284627087  0.21596349834113138          1.0000   
         C         C         1.0       0.3909235632113725  0.611060574014992   0.20011303340461095          1.0000   
         C         C         1.0       0.38996343860053395           0.6123212413052793 0.17083516780537425          1.0000   
         H         H         1.0       0.47573841524179605           0.5949935478618498 0.16204297163179415          1.0000   
         H         H         1.0       0.4738408952991391  0.5835743514073993  0.21005226043091663          1.0000   
         H         H         1.0       0.3654063418904446  0.6138762080225587  0.21080388591490995          1.0000   
         H         H         1.0       0.3647886251825193  0.615089046267389   0.15841515450561286          1.0000   
         C         C         1.0       0.3816960995817593  0.64551555149348    0.260855840896758  1.0000   
         C         C         1.0       0.3852858665072681  0.6117457432729171  0.26532348500947245          1.0000   
         C         C         1.0       0.3625245213153076  0.5965368333419758  0.2846583413166079 1.0000   
         C         C         1.0       0.3344634161375182  0.614960615959755   0.2967426526344299 1.0000   
         C         C         1.0       0.33422608534435705           0.6502410708820355 0.2930429806003732 1.0000   
         C         C         1.0       0.35736841873029207           0.6650662248153825 0.2744376457106244 1.0000   
         C         C         1.0       0.41626738244914036           0.5906579958764425 0.25026925329876076          1.0000   
         C         C         1.0       0.4470712402024149  0.600021645478737   0.2696808174472611 1.0000   
         C         C         1.0       0.4495615019635109  0.5858432888143245  0.29759416426248936          1.0000   
         C         C         1.0       0.4816195408599167  0.5825620999536271  0.31110157230129204          1.0000   
         C         C         1.0       0.5118635790279927  0.5967267517701751  0.3003420495598071 1.0000   
         C         C         1.0       0.5072625067880301  0.6185666715196994  0.2777537657845492 1.0000   
         C         C         1.0       0.47587039316808655           0.6201878748235535 0.26135669638783865          1.0000   
         C         C         1.0       0.3832632203077853  0.5340028339775001  0.23914882183534952          1.0000   
         C         C         1.0       0.3847108357472539  0.5006089122342985  0.23044372827065737          1.0000   
         C         C         1.0       0.41560960345704345           0.4819655489016304 0.2295052516374566 1.0000   
         C         C         1.0       0.44665034731516534           0.4986007729498533 0.23736411076696232          1.0000   
         C         C         1.0       0.44470216948792574           0.5312318030871179 0.2463021020390216 1.0000   
         C         C         1.0       0.41405788425113843           0.5503435035280446 0.24816976875555424          1.0000   
         C         C         1.0       0.42072453933770204           0.44162634845686993          0.22009909390548635          1.0000   
         C         C         1.0       0.43102726064685204           0.39113228146657536          0.3045981012025703 1.0000   
         C         C         1.0       0.3986028502688408  0.40186828575596034           0.2945583171324509 1.0000   
         C         C         1.0       0.3961336503759359  0.41729496278435846           0.2680467209669061 1.0000   
         C         C         1.0       0.4253635877653004  0.4228740612703944  0.25104600559251034          1.0000   
         C         C         1.0       0.45738296995318845           0.4145201430653937 0.2643649049069493 1.0000   
         C         C         1.0       0.4609821295605467  0.40006640229974605           0.29124429159569487          1.0000   
         C         C         1.0       0.45108810519420767           0.4363793096141799 0.19757042237588865          1.0000   
         C         C         1.0       0.45925728327474524           0.4589500124896771 0.175457057519115  1.0000   
         C         C         1.0       0.4839722062780273  0.4501618945737154  0.1546724085525882 1.0000   
         C         C         1.0       0.4988518432630482  0.41829409253985755           0.1553523533529879 1.0000   
         C         C         1.0       0.49104442639143453           0.39551873447308394          0.1767511023517772 1.0000   
         C         C         1.0       0.4658154784937514  0.40399648132565363           0.19638725268926857          1.0000   
         C         C         1.0       0.3815635565432089  0.3922186689642288  0.2034149335941876 1.0000   
         C         C         1.0       0.3652046503887556  0.3745227959838287  0.18178016857552076          1.0000   
         C         C         1.0       0.356836351132159   0.39026187955217706           0.1566696778301731 1.0000   
         C         C         1.0       0.36240994965078654           0.42443786677317424          0.1541756136752077 1.0000   
         C         C         1.0       0.37938895228648534           0.44250446227135515          0.1757067735383032 1.0000   
         C         C         1.0       0.3888886869966744  0.42666162458413964           0.20110754346120788          1.0000   
         H         H         1.0       0.4004404386552705  0.6590422715310695  0.24717774413290025          1.0000   
         H         H         1.0       0.36343128315384343           0.5689840960534461 0.2894626712712507 1.0000   
         H         H         1.0       0.31643430747868967           0.6054885201204048 0.3124456224363611 1.0000   
         H         H         1.0       0.3551292704115837  0.6908773195208876  0.26999572315377085          1.0000   
         H         H         1.0       0.4288936486728841  0.5714438452958072  0.3051081138313952 1.0000   
         H         H         1.0       0.4835655980924063  0.5706804441494124  0.3321666270524825 1.0000   
         H         H         1.0       0.5311327842421933  0.6307927836463768  0.2691841591453459 1.0000   
         H         H         1.0       0.4740110806014858  0.6358208810720185  0.2425001679432365 1.0000   
         H         H         1.0       0.3603907375672214  0.5488786343174951  0.23454140782008814          1.0000   
         H         H         1.0       0.3585057906080138  0.49270580940258396           0.2204832573152817 1.0000   
         H         H         1.0       0.46907388649550913           0.48198208605319315          0.23767002037719503          1.0000   
         H         H         1.0       0.46998702267789666           0.5431481442741826 0.24787335128603752          1.0000   
         H         H         1.0       0.37549931688480453           0.39775838810446923          0.30542863191205705          1.0000   
         H         H         1.0       0.37036968990485775           0.42550595866427926          0.2617974048485402 1.0000   
         H         H         1.0       0.4821695541162749  0.42106060365772546           0.25514492055804344          1.0000   
         H         H         1.0       0.4856473394776945  0.3978699472493119  0.30302451734776414          1.0000   
         H         H         1.0       0.44348119688709264           0.4807519481556082 0.1699268730887681 1.0000   
         H         H         1.0       0.49078825550772415           0.4652429944804801 0.13678373925269885          1.0000   
         H         H         1.0       0.5053180354237784  0.3708105489918442  0.1772021524589471 1.0000   
         H         H         1.0       0.4582558887519859  0.38438114928664546           0.21128185482924833          1.0000   
         H         H         1.0       0.38918135166095164           0.37897581160472565          0.22308519219183418          1.0000   
         H         H         1.0       0.3643076977359619  0.34723921004728503           0.18289184804185274          1.0000   
         H         H         1.0       0.35526672217980804           0.4362919878712929 0.1338123118759711 1.0000   
         H         H         1.0       0.38459511092792953           0.46818876196396314          0.17193467716625616          1.0000   
         C         C         1.0       0.4246981193364406  0.3544337729240313  0.9383119624650071 1.0000   
         C         C         1.0       0.3994984115443698  0.36834253757542884           0.9547953099862387 1.0000   
         C         C         1.0       0.4070640896506995  0.3878447295051903  0.9781681942046286 1.0000   
         C         C         1.0       0.442741863437212   0.3880961676792748  0.9869726130581994 1.0000   
         C         C         1.0       0.46784202768000444           0.3822521578225767 0.9664759804602746 1.0000   
         C         C         1.0       0.45864363757044085           0.3649941236309982 0.9419274241604441 1.0000   
         H         H         1.0       0.37261353830897087           0.3606538221490186 0.953326499540754  1.0000   
         H         H         1.0       0.3853908355490394  0.399155641755399   0.9913257417056265 1.0000   
         H         H         1.0       0.49524115548260594           0.38360595604996695          0.9688851850357668 1.0000   
         H         H         1.0       0.4760241971341796  0.3533451158929528  0.9284463117640859 1.0000   
         C         C         1.0       0.49495421049871985           0.34605698765287474          0.019196547123480068         1.0000   
         C         C         1.0       0.48962255024860424           0.3802466970259686 0.027699217188175806         1.0000   
         C         C         1.0       0.5157364245330887  0.39614159525007275           0.04406882273913304          1.0000   
         C         C         1.0       0.5482150888123718  0.3819065613636493  0.04792362871132472          1.0000   
         C         C         1.0       0.5536249445617925  0.34961431019369665           0.03826777847843621          1.0000   
         C         C         1.0       0.526850836606958   0.33073946461318676           0.02555080308908919          1.0000   
         C         C         1.0       0.4560326739326724  0.4008015789685752  0.019391480758425672         1.0000   
         C         C         1.0       0.4303484389057284  0.3907809328237666  0.04415180398411689          1.0000   
         C         C         1.0       0.43332904354839696           0.4062512807873045 0.07114201635407436          1.0000   
         C         C         1.0       0.4150886254024252  0.3952422234608267  0.09457635730679348          1.0000   
         C         C         1.0       0.39579968014831196           0.3654879248285151 0.09232826169072843          1.0000   
         C         C         1.0       0.39164533522027195           0.3499353750271534 0.06563532175764064          1.0000   
         C         C         1.0       0.41025160847788245           0.36007972325142457          0.04307787046547862          1.0000   
         C         C         1.0       0.4865698297939211  0.4562586842173435  0.0027500881363859975        1.0000   
         C         C         1.0       0.48314765334092963           0.4867796113445722 0.9905141179097944 1.0000   
         C         C         1.0       0.45116326976602134           0.5044485913205843 0.9880521195510114 1.0000   
         C         C         1.0       0.4236672602333465  0.48973769405677503           0.0033596233432380274        1.0000   
         C         C         1.0       0.42686392626486847           0.4590427063638765 0.01520789432375258          1.0000   
         C         C         1.0       0.45784407075126204           0.4408832988058176 0.015884167725509934         1.0000   
         C         C         1.0       0.45151184629557617           0.5399257743204237 0.9714981116717794 1.0000   
         C         C         1.0       0.49398402794109736           0.6066299999133041 0.04005280589701443          1.0000   
         C         C         1.0       0.5147994019413272  0.5962105400819162  0.017430006691685263         1.0000   
         C         C         1.0       0.5018898814938103  0.5752972457378009  0.9966487076813058 1.0000   
         C         C         1.0       0.46660602604323326           0.5646219968347491 0.9964349535362798 1.0000   
         C         C         1.0       0.44586397407433614           0.5727458348505459 0.019247285220775012         1.0000   
         C         C         1.0       0.460617670952711   0.5935382361569033  0.041070485266366585         1.0000   
         C         C         1.0       0.4147281615185162  0.5536849442436436  0.958916860014002  1.0000   
         C         C         1.0       0.38889619757705096           0.5314619287679562 0.9479612384156803 1.0000   
         C         C         1.0       0.3583637879100872  0.5432398751598241  0.9363391500013891 1.0000   
         C         C         1.0       0.35321431715511126           0.5774157788639851 0.9331047294140542 1.0000   
         C         C         1.0       0.3775696960994935  0.6005580270483938  0.9434526240551613 1.0000   
         C         C         1.0       0.4090369342254756  0.5882851306927867  0.9547488816445315 1.0000   
         C         C         1.0       0.48242358639224353           0.5689147637560297 0.9282054570892999 1.0000   
         C         C         1.0       0.4952724950773833  0.5655877357083688  0.900466199115462  1.0000   
         C         C         1.0       0.4932386726159016  0.5358625027814954  0.8854775838579926 1.0000   
         C         C         1.0       0.4837569638896129  0.506426024832735   0.8990231372755136 1.0000   
         C         C         1.0       0.47105465882918895           0.5075005608763318 0.926229929262835  1.0000   
         C         C         1.0       0.4695573471785894  0.539421571615212   0.9412440884392788 1.0000   
         H         H         1.0       0.4722311625862912  0.33238789079341746           0.009109945682890475         1.0000   
         H         H         1.0       0.5120517809622223  0.42036540796763894           0.05367779086251678          1.0000   
         H         H         1.0       0.5673455608400821  0.3939434861682051  0.06250491211319642          1.0000   
         H         H         1.0       0.5319231825907452  0.3032353423936613  0.020086830185755744         1.0000   
         H         H         1.0       0.45059336474614475           0.4282393741891132 0.07321312228397736          1.0000   
         H         H         1.0       0.41674248333511943           0.41101308920293517          0.11488928782251616          1.0000   
         H         H         1.0       0.37199299763287774           0.3312108671138062 0.06518912471269833          1.0000   
         H         H         1.0       0.4084229626703     0.3427302556125233  0.0247274972645406 1.0000   
         H         H         1.0       0.5108485611701375  0.4415935098329171  0.9996981079076146 1.0000   
         H         H         1.0       0.5058603210575251  0.49781307703096755           0.9803234580974655 1.0000   
         H         H         1.0       0.3984884949634708  0.5035691419043152  0.003248146258108431         1.0000   
         H         H         1.0       0.4033533634078738  0.4468007493103133  0.022454163410260408         1.0000   
         H         H         1.0       0.5408032091091152  0.607407500109586   0.0146007454406758 1.0000   
         H         H         1.0       0.5177797439794823  0.5674299000394388  0.9789415486422065 1.0000   
         H         H         1.0       0.4206123622457805  0.5600659905718222  0.022044504029683276         1.0000   
         H         H         1.0       0.44457766768923457           0.6017783531483301 0.05795906831951303          1.0000   
         H         H         1.0       0.39428861488673345           0.5049717545172097 0.9491788653693795 1.0000   
         H         H         1.0       0.33961141814977713           0.5238753554666173 0.9292345285833179 1.0000   
         H         H         1.0       0.3730690181716793  0.6269886569893935  0.9424566474909125 1.0000   
         H         H         1.0       0.4285616456097872  0.607095283288234   0.9621684461973067 1.0000   
         H         H         1.0       0.480956549271626   0.5942834826657368  0.937556602526968  1.0000   
         H         H         1.0       0.5039131206433486  0.588131308809726   0.8896818946422839 1.0000   
         H         H         1.0       0.4851431336001458  0.48232837778003174           0.8851828033383324 1.0000   
         H         H         1.0       0.45788116540518475           0.48632842085969824          0.9347651556414619 1.0000   
         C         C         1.0       0.8446961625145897  0.6679166037722961  0.43286567190865927          1.0000   
         C         C         1.0       0.8097572316245927  0.6609706900370993  0.4267180688133158 1.0000   
         C         C         1.0       0.7991770564316429  0.6314233498662942  0.411277118784028  1.0000   
         C         C         1.0       0.8235383433822976  0.6059756774136056  0.4063382504604354 1.0000   
         C         C         1.0       0.8579275346802526  0.6118366781897577  0.4142521993711919 1.0000   
         C         C         1.0       0.8681646371904687  0.6439272996846747  0.4258799968299175 1.0000   
         H         H         1.0       0.7911096779407651  0.6792892787607939  0.431769124570756  1.0000   
         H         H         1.0       0.772346715087576   0.6272668627244259  0.40357556661734195          1.0000   
         H         H         1.0       0.8768303505841686  0.5916365641461956  0.41130462047453836          1.0000   
         H         H         1.0       0.8962779895394615  0.6477928438731879  0.4334024296147315 1.0000   
         C         C         1.0       0.8510519761234804  0.5883083171869119  0.34842016106059626          1.0000   
         C         C         1.0       0.8376606250643016  0.5611858629821014  0.3638504228923989 1.0000   
         C         C         1.0       0.8425971204545745  0.5291962972173421  0.3537873712511268 1.0000   
         C         C         1.0       0.8603639767937863  0.5233541264844964  0.32902331871241364          1.0000   
         C         C         1.0       0.8732627518449279  0.5501059440653039  0.3129318460452497 1.0000   
         C         C         1.0       0.8706741136068955  0.5825397202253872  0.32401437989483484          1.0000   
         C         C         1.0       0.8130226527982317  0.5708087837344153  0.3894574038224108 1.0000   
         C         C         1.0       0.7755364084555322  0.5680994391464543  0.3717903684852944 1.0000   
         C         C         1.0       0.757537784679021   0.5364073162939984  0.36996720866165433          1.0000   
         C         C         1.0       0.7286574603711763  0.5319824617715666  0.35220868365287067          1.0000   
         C         C         1.0       0.7182603863679757  0.558750312823433   0.33367174023786744          1.0000   
         C         C         1.0       0.7362859904466201  0.5886905635991433  0.33458954692418263          1.0000   
         C         C         1.0       0.7632581989060675  0.5939566791534268  0.35430747118811   1.0000   
         C         C         1.0       0.832293299455459   0.5191912047365306  0.42171756410331634          1.0000   
         C         C         1.0       0.8246168253804588  0.4953969973980728  0.4424311163309612 1.0000   
         C         C         1.0       0.7949238398080976  0.4961980415352791  0.4580894031514802 1.0000   
         C         C         1.0       0.776809714927207   0.5267163800884781  0.45723203259874073          1.0000   
         C         C         1.0       0.784276502223607   0.5512360562181934  0.43686498048485484          1.0000   
         C         C         1.0       0.8106460498589662  0.5473912307282801  0.41726142892642865          1.0000   
         C         C         1.0       0.7849489604760392  0.46470292024925663           0.47818139402675863          1.0000   
         C         C         1.0       0.7979444902060646  0.3607666759116402  0.4463529408754025 1.0000   
         C         C         1.0       0.7962538055803505  0.3664439871416098  0.4756189517295607 1.0000   
         C         C         1.0       0.7940680092933546  0.39920526181536253           0.4859297123177205 1.0000   
         C         C         1.0       0.7893175974853557  0.42622529870046744           0.4664830985065924 1.0000   
         C         C         1.0       0.7876132155246269  0.420075359704684   0.4367491009610355 1.0000   
         C         C         1.0       0.7915306967789927  0.3868868152406294  0.4266980826545872 1.0000   
         C         C         1.0       0.7448362578206373  0.46192907567888897           0.48655143151217495          1.0000   
         C         C         1.0       0.7334290889958066  0.4469183853134223  0.5117614983916786 1.0000   
         C         C         1.0       0.6984557075530627  0.44257878061626826           0.5163589872735797 1.0000   
         C         C         1.0       0.6737928500038035  0.45527829543910986           0.4970084305769095 1.0000   
         C         C         1.0       0.6840392079044079  0.46911123778430236           0.47106872026169755          1.0000   
         C         C         1.0       0.7191307826393809  0.4716574249761491  0.4660862021249258 1.0000   
         C         C         1.0       0.8425000073342247  0.461019123689664   0.5116271668475512 1.0000   
         C         C         1.0       0.8641515318861626  0.4738758134940521  0.5326911352971061 1.0000   
         C         C         1.0       0.8526749680845174  0.5000812227763896  0.551167294585512  1.0000   
         C         C         1.0       0.8191857027508613  0.5113926488344545  0.5483822751185279 1.0000   
         C         C         1.0       0.797143029194352   0.4995484108987926  0.5264825156492993 1.0000   
         C         C         1.0       0.8086995561936796  0.47484751232970623           0.5077945163112523 1.0000   
         H         H         1.0       0.8454414374915817  0.6152756597802018  0.35414015636275625          1.0000   
         H         H         1.0       0.829264572301133   0.5083558939881729  0.36431400684943094          1.0000   
         H         H         1.0       0.8652539369809664  0.49749599112099896           0.32189110156687023          1.0000   
         H         H         1.0       0.8823086742293561  0.6033546034649614  0.3103294220943656 1.0000   
         H         H         1.0       0.766727027533572   0.5160190939117166  0.38345269420484224          1.0000   
         H         H         1.0       0.7159856817370948  0.5058121869002159  0.3537333595941945 1.0000   
         H         H         1.0       0.729655618584157   0.6104400010923869  0.32069440294061785          1.0000   
         H         H         1.0       0.779294524425306   0.6172834079110122  0.3568251942125566 1.0000   
         H         H         1.0       0.8535479130464391  0.5121794051427113  0.4087537576666823 1.0000   
         H         H         1.0       0.8404920175124193  0.47352893563782983           0.44549580217970736          1.0000   
         H         H         1.0       0.7561961556835983  0.53112574115512    0.47166557588772695          1.0000   
         H         H         1.0       0.7665555220521612  0.5733556353838202  0.43394010719686466          1.0000   
         H         H         1.0       0.806315723807683   0.34690875041180697           0.4898270049697489 1.0000   
         H         H         1.0       0.7924094381736672  0.40170755126540936           0.5100679678781854 1.0000   
         H         H         1.0       0.7887933940983115  0.44087461937746497           0.42275426679259775          1.0000   
         H         H         1.0       0.7972601822912798  0.38270402844539086           0.40432947245428724          1.0000   
         H         H         1.0       0.7515966030591801  0.43539357119204136           0.5281446047756782 1.0000   
         H         H         1.0       0.6920875009765043  0.43610715844237735           0.5392098055058958 1.0000   
         H         H         1.0       0.6636845953998409  0.4776217509692467  0.455859546258401  1.0000   
         H         H         1.0       0.7274982541524122  0.4760921853986959  0.4447404363449686 1.0000   
         H         H         1.0       0.8540853417231694  0.4435025112073774  0.4955934457996337 1.0000   
         H         H         1.0       0.8897256663636287  0.4663902508459709  0.534949222583655  1.0000   
         H         H         1.0       0.8115130376229603  0.5336560396134612  0.5610523190172235 1.0000   
         H         H         1.0       0.7716513318649744  0.510911439853864   0.5252914708719485 1.0000   
         C         C         1.0       0.8335776712239675  0.3790427756134669  0.7372660604944736 1.0000   
         C         C         1.0       0.8570334709750169  0.3984106587390003  0.7227038855774643 1.0000   
         C         C         1.0       0.8445866722985108  0.4247951361127455  0.7077353953686168 1.0000   
         C         C         1.0       0.8089745268746396  0.4338147833607855  0.7061829952029584 1.0000   
         C         C         1.0       0.7869836088850343  0.41532717460241797           0.7222482327272731 1.0000   
         C         C         1.0       0.7989005321211247  0.3880133038608672  0.7382213108767364 1.0000   
         H         H         1.0       0.8829834154515802  0.3895834675552515  0.7215349206698579 1.0000   
         H         H         1.0       0.8632153331233272  0.440574298655279   0.6953804702866186 1.0000   
         H         H         1.0       0.7599322613277212  0.42299541753823444           0.7257156874479718 1.0000   
         H         H         1.0       0.7821445291979149  0.37372719565746404           0.7514015038168863 1.0000   
         C         C         1.0       0.7439711516365942  0.44471701220589727           0.6640203766879901 1.0000   
         C         C         1.0       0.7589027994909102  0.4718202878574332  0.6790310852623324 1.0000   
         C         C         1.0       0.7386734773725047  0.5023034618615606  0.6786704417232406 1.0000   
         C         C         1.0       0.7073579690438317  0.5039162369280586  0.6641045546529458 1.0000   
         C         C         1.0       0.6938949045965968  0.47804025950101764           0.6485532888417516 1.0000   
         C         C         1.0       0.7126695961004837  0.44638975723145874           0.649780951869978  1.0000   
         C         C         1.0       0.7959963137950352  0.47102229988049565           0.6955084336004115 1.0000   
         C         C         1.0       0.8180248212246191  0.48830832263991875           0.6691674020161217 1.0000   
         C         C         1.0       0.8233560786750083  0.5238723097667083  0.6649782764448908 1.0000   
         C         C         1.0       0.8397519710012218  0.5378472836088508  0.6422378569395502 1.0000   
         C         C         1.0       0.8535539637317222  0.5179394150105467  0.6215180013001939 1.0000   
         C         C         1.0       0.8502031426732852  0.483584306111155   0.624410220624791  1.0000   
         C         C         1.0       0.8308050771531553  0.46886551812057936           0.6454121651768574 1.0000   
         C         C         1.0       0.7676445287008599  0.4926402106020321  0.7430235403091233 1.0000   
         C         C         1.0       0.7688738720447423  0.5092402844534349  0.7700212597588822 1.0000   
         C         C         1.0       0.798388532854562   0.5236802406179539  0.7809528793314634 1.0000   
         C         C         1.0       0.8285842432704507  0.5215299906680337  0.7636661762938223 1.0000   
         C         C         1.0       0.8273213270171136  0.5049835777551428  0.7372009608566309 1.0000   
         C         C         1.0       0.7970623315239297  0.4905447538971376  0.7262545901898925 1.0000   
         C         C         1.0       0.7968533615247008  0.5515045231893401  0.8059107911047191 1.0000   
         C         C         1.0       0.7846755173551415  0.6363401392023103  0.7438182998603367 1.0000   
         C         C         1.0       0.757284819092682   0.6149979743249733  0.7499732337378581 1.0000   
         C         C         1.0       0.7603809295551375  0.5894135126217498  0.7711402836054506 1.0000   
         C         C         1.0       0.7913228815971078  0.5847184960500784  0.7864568977410953 1.0000   
         C         C         1.0       0.8182296283678495  0.6060870699437594  0.7790784701541063 1.0000   
         C         C         1.0       0.8161337380855053  0.6295735306203833  0.7576870880027445 1.0000   
         C         C         1.0       0.8292721855839066  0.5524188183257136  0.8282511883718446 1.0000   
         C         C         1.0       0.8497911694882232  0.5250818578918206  0.8337295858673206 1.0000   
         C         C         1.0       0.8770551235105188  0.5277201913774718  0.854242880545268  1.0000   
         C         C         1.0       0.8811642610139067  0.5563959211980639  0.8702983141555506 1.0000   
         C         C         1.0       0.8607520001958925  0.5844239284493769  0.8635509446765821 1.0000   
         C         C         1.0       0.8340172833603917  0.5822728457196463  0.8440416621477188 1.0000   
         C         C         1.0       0.7451477509342433  0.5738572847731099  0.8361891032533069 1.0000   
         C         C         1.0       0.7153458939913672  0.568245725032375   0.8509270255850148 1.0000   
         C         C         1.0       0.7099802985002823  0.5376651007404109  0.8635562911046325 1.0000   
         C         C         1.0       0.732257026197506   0.5102403488698071  0.858521214574818  1.0000   
         C         C         1.0       0.7597170650754745  0.5144148354766056  0.8407218588811066 1.0000   
         C         C         1.0       0.7661603138015322  0.5467975402981501  0.8277789405002055 1.0000   
         H         H         1.0       0.7596757377871227  0.4219435144040584  0.6594907926406568 1.0000   
         H         H         1.0       0.746012293566023   0.5255077181884776  0.6900830297652492 1.0000   
         H         H         1.0       0.6980403144525535  0.5301822571487644  0.6615490389312577 1.0000   
         H         H         1.0       0.7032985775076912  0.42507068497059763           0.6376607808430419 1.0000   
         H         H         1.0       0.8096876282737538  0.5423931475021297  0.6787020805881944 1.0000   
         H         H         1.0       0.8390631051512112  0.5647264996671525  0.6430845123506768 1.0000   
         H         H         1.0       0.8585126829634044  0.46719577144100677           0.6071337876856346 1.0000   
         H         H         1.0       0.8270383527393653  0.44189697064658556           0.6440001235221271 1.0000   
         H         H         1.0       0.741493572097825   0.4820037201870628  0.7356946208104734 1.0000   
         H         H         1.0       0.7460619128343263  0.5103352836232591  0.7831573347718511 1.0000   
         H         H         1.0       0.8523874899860986  0.5328157759610725  0.7713644579925291 1.0000   
         H         H         1.0       0.8492598289414603  0.5043000741534391  0.7225635547889838 1.0000   
         H         H         1.0       0.7314524157863944  0.6182396357061313  0.7391130579011517 1.0000   
         H         H         1.0       0.7368756819875387  0.575391372939477   0.77330942321495   1.0000   
         H         H         1.0       0.8439278349133619  0.6017792084694125  0.7885627860683423 1.0000   
         H         H         1.0       0.8392512632126491  0.6457658016526463  0.7525654210547863 1.0000   
         H         H         1.0       0.845421670139282   0.5010320080277246  0.8221726008755771 1.0000   
         H         H         1.0       0.890081871316919   0.5040103022346033  0.8571578935551257 1.0000   
         H         H         1.0       0.8638533064592182  0.6074867081533863  0.8758863460480801 1.0000   
         H         H         1.0       0.8183231936754491  0.6054126554296818  0.8393496127951908 1.0000   
         H         H         1.0       0.7473556326839489  0.598891660405362   0.8279290151183741 1.0000   
         H         H         1.0       0.6948657720080794  0.5876912949012545  0.8540256439053907 1.0000   
         H         H         1.0       0.7239412349551353  0.4870015316049923  0.8692822458335986 1.0000   
         H         H         1.0       0.7750565354132346  0.4938126407999141  0.8344572922523747 1.0000   
         C         C         1.0       0.5862310451651328  0.7375089139322757  0.4698943445461584 1.0000   
         C         C         1.0       0.6190228537269516  0.735234893186129   0.4583257193635831 1.0000   
         C         C         1.0       0.6256337830948949  0.7475202152705435  0.4317478576354248 1.0000   
         C         C         1.0       0.5995024558286004  0.7619043436925516  0.4152395133111254 1.0000   
         C         C         1.0       0.5652747730452825  0.757965697928256   0.4238697260586906 1.0000   
         C         C         1.0       0.558758920326805   0.7461056190951861  0.4520167907194003 1.0000   
         H         H         1.0       0.6429099956622033  0.7321602198932888  0.47101776473220336          1.0000   
         H         H         1.0       0.6534741631214255  0.74794546902192    0.4275805909382413 1.0000   
         H         H         1.0       0.5437713926793843  0.7667419621310101  0.41174029913263055          1.0000   
         H         H         1.0       0.5328423762893373  0.7447140883926192  0.4604175906661403 1.0000   
         C         C         1.0       0.5564073964249063  0.8019680538708307  0.3670238735312399 1.0000   
         C         C         1.0       0.585641748357314   0.8132793043030944  0.38153889723734485          1.0000   
         C         C         1.0       0.5862082062951247  0.8479497138266379  0.38857622843161255          1.0000   
         C         C         1.0       0.5554391396339423  0.8678771899082481  0.3841054971233571 1.0000   
         C         C         1.0       0.5263877179942393  0.8538591799559262  0.36998243938022823          1.0000   
         C         C         1.0       0.5268711567529829  0.8213633797404798  0.3619683254685919 1.0000   
         C         C         1.0       0.6157672294117282  0.7856645866245539  0.39046410092761397          1.0000   
         C         C         1.0       0.6241847558564838  0.7634422844827564  0.3612895211225242 1.0000   
         C         C         1.0       0.6218141335492012  0.7771131894728722  0.3329104304970966 1.0000   
         C         C         1.0       0.6308040591067767  0.756810675320983   0.3096523281791974 1.0000   
         C         C         1.0       0.6416855791029515  0.7240444536895436  0.3121694788973686 1.0000   
         C         C         1.0       0.6461103563514626  0.7123683602020433  0.3392202108282394 1.0000   
         C         C         1.0       0.6400162957865715  0.7319475323849892  0.3631234715162422 1.0000   
         C         C         1.0       0.6507611209489217  0.8222458454030841  0.42881214551005226          1.0000   
         C         C         1.0       0.6793833427543107  0.8355752438231149  0.44235213507097537          1.0000   
         C         C         1.0       0.7113332479506616  0.8343582892517312  0.42804433857329227          1.0000   
         C         C         1.0       0.7111761822954579  0.820565759938752   0.3994093363311239 1.0000   
         C         C         1.0       0.6807018572952124  0.8085411860451281  0.38700212987516475          1.0000   
         C         C         1.0       0.6505504722654973  0.8080492652413079  0.40167879077290425          1.0000   
         C         C         1.0       0.7474516945065597  0.8431980185369756  0.444714129616883  1.0000   
         C         C         1.0       0.7600672517207079  0.9393756335325422  0.4000168946692977 1.0000   
         C         C         1.0       0.7378964255440612  0.9368825852105003  0.42234905915071697          1.0000   
         C         C         1.0       0.7340381424291372  0.9072080887691113  0.43613268031956826          1.0000   
         C         C         1.0       0.7547652093443158  0.87873350246196    0.4300976065076838 1.0000   
         C         C         1.0       0.7774655526575515  0.8822466915932607  0.4076599643555366 1.0000   
         C         C         1.0       0.7800672024782274  0.9114028931920328  0.393540952636277  1.0000   
         C         C         1.0       0.7775965572258896  0.8127652480141616  0.44000014678509797          1.0000   
         C         C         1.0       0.7668358075724135  0.7800320141252922  0.4348119133996543 1.0000   
         C         C         1.0       0.7912585197387874  0.7540799073891336  0.4299932444093276 1.0000   
         C         C         1.0       0.8264882512466428  0.7611502219007904  0.43143035268506136          1.0000   
         C         C         1.0       0.8371058349741226  0.7939170340244048  0.43946030952039306          1.0000   
         C         C         1.0       0.8124398408867484  0.8191113358204445  0.44449885234522396          1.0000   
         C         C         1.0       0.7721107634030361  0.8692015839175851  0.4927736425412574 1.0000   
         C         C         1.0       0.7783099532832307  0.8687971535185915  0.5219885210586331 1.0000   
         C         C         1.0       0.7621768448974297  0.8447060045751251  0.5382611025431164 1.0000   
         C         C         1.0       0.7374765582735889  0.8225194837877212  0.5261214132384557 1.0000   
         C         C         1.0       0.7318016022058939  0.8239660606004094  0.496412199799653  1.0000   
         C         C         1.0       0.7488662172958229  0.8466141835113946  0.47907113168033283          1.0000   
         H         H         1.0       0.5568435143175272  0.7743011425316099  0.36177875574651425          1.0000   
         H         H         1.0       0.6098523971713024  0.858725362454991   0.3999461888577267 1.0000   
         H         H         1.0       0.5565002563440644  0.8938177742767325  0.3908132667123862 1.0000   
         H         H         1.0       0.5045082819869205  0.8068867311567085  0.3518226294351977 1.0000   
         H         H         1.0       0.6116275748699019  0.8018733166758609  0.3293333029461711 1.0000   
         H         H         1.0       0.6259506579529766  0.7658792944760209  0.2869651484025786 1.0000   
         H         H         1.0       0.6565291642986686  0.687428606264172   0.3438174955270303 1.0000   
         H         H         1.0       0.6476613783617963  0.7199473128284619  0.3833032274763132 1.0000   
         H         H         1.0       0.6287966163494978  0.8210056236704673  0.4413783531816321 1.0000   
         H         H         1.0       0.6762049402080504  0.845179796976654   0.46434282384632986          1.0000   
         H         H         1.0       0.7329046377128149  0.8223851296170946  0.385843473411537  1.0000   
         H         H         1.0       0.6812388549847425  0.7981345165809678  0.36537704586695474          1.0000   
         H         H         1.0       0.7220620922333791  0.9597977674050356  0.4285191751090903 1.0000   
         H         H         1.0       0.7130404844698158  0.9055183964597603  0.4509845939646188 1.0000   
         H         H         1.0       0.7922202750416597  0.8609294431717598  0.40157241042586483          1.0000   
         H         H         1.0       0.7964460646598024  0.9157636410906433  0.37475336382938834          1.0000   
         H         H         1.0       0.7385804120521375  0.7731672249655651  0.42992766060323967          1.0000   
         H         H         1.0       0.7799983467922162  0.7298332057477298  0.421488552381726  1.0000   
         H         H         1.0       0.8641221365377838  0.801867254173103   0.43968868092650826          1.0000   
         H         H         1.0       0.8203516621002421  0.8450041018830622  0.44852354368111813          1.0000   
         H         H         1.0       0.7886518337001219  0.8864326566282258  0.48079130785731916          1.0000   
         H         H         1.0       0.7964497247069475  0.8871358348881917  0.5310904601131131 1.0000   
         H         H         1.0       0.7231902510304602  0.8050260063790281  0.5398784086377169 1.0000   
         H         H         1.0       0.7151895925210745  0.8052735222958858  0.485949438111859  1.0000   
         C         C         1.0       0.8792331530693602  0.8531580017147543  0.7735700277926781 1.0000   
         C         C         1.0       0.8794638602364281  0.8654901322069619  0.7451683219786729 1.0000   
         C         C         1.0       0.854526454172911   0.8554657738006448  0.7258792732979479 1.0000   
         C         C         1.0       0.8319220728850266  0.8285132469138181  0.7308069778599585 1.0000   
         C         C         1.0       0.8341447613474797  0.8135559107557406  0.7588061627089938 1.0000   
         C         C         1.0       0.8547901064053182  0.8278946274454909  0.7809915064536185 1.0000   
         H         H         1.0       0.8978023055111035  0.8848741237964918  0.7364595243402322 1.0000   
         H         H         1.0       0.8518543205555679  0.8689852587931439  0.7041893688095876 1.0000   
         H         H         1.0       0.82098745402843    0.7890985934678775  0.7612694493160123 1.0000   
         H         H         1.0       0.855726863023495   0.8191307368105207  0.80317921766104   1.0000   
         C         C         1.0       0.8395151092624882  0.7572708941102733  0.7091604960309305 1.0000   
         C         C         1.0       0.8108446302361924  0.7757608995519966  0.6992109273221819 1.0000   
         C         C         1.0       0.7883331328040394  0.7564699335591056  0.6811382906974168 1.0000   
         C         C         1.0       0.7915104811663752  0.7217213359719747  0.676652188142994  1.0000   
         C         C         1.0       0.815627659800433   0.7044857237017523  0.6928833240703866 1.0000   
         C         C         1.0       0.8411429080737197  0.722273674017694   0.7085644328400911 1.0000   
         C         C         1.0       0.8035680356564662  0.8147413029335961  0.7080076889593626 1.0000   
         C         C         1.0       0.8016679340255161  0.8347156793455502  0.6768073920476982 1.0000   
         C         C         1.0       0.7720899224676655  0.8519630987075375  0.6658409770023365 1.0000   
         C         C         1.0       0.7699985485775461  0.86238607801857    0.6380558454890483 1.0000   
         C         C         1.0       0.79754537207312    0.8572141810774412  0.6201310006447656 1.0000   
         C         C         1.0       0.8276705310399054  0.8418294927006688  0.6292704731962773 1.0000   
         C         C         1.0       0.8300048733446965  0.8325564720518671  0.6584796036104934 1.0000   
         C         C         1.0       0.7433541210199234  0.7968663385958443  0.7305483223709813 1.0000   
         C         C         1.0       0.7173627532231314  0.8014388838677905  0.7493507230201643 1.0000   
         C         C         1.0       0.7125322237560665  0.832284667871404   0.7639853907496422 1.0000   
         C         C         1.0       0.7354393091011202  0.859444053043769   0.7570239344738746 1.0000   
         C         C         1.0       0.7617767273238446  0.8538925100226603  0.7377902053778098 1.0000   
         C         C         1.0       0.7683171720099048  0.8212748519160343  0.7257102958197144 1.0000   
         C         C         1.0       0.6826573808139821  0.8317770235278579  0.7877719553231017 1.0000   
         C         C         1.0       0.5916766586730786  0.8409385616197759  0.7273573157257232 1.0000   
         C         C         1.0       0.5998187292604557  0.8091343298584232  0.7383713966541686 1.0000   
         C         C         1.0       0.6294542383180491  0.805759288374442   0.7561042794205122 1.0000   
         C         C         1.0       0.6487115467040409  0.8341954068046441  0.7653638546016917 1.0000   
         C         C         1.0       0.6400845849207016  0.8648319385330862  0.751280109693021  1.0000   
         C         C         1.0       0.6108491293549343  0.8688727504607808  0.7331669995109393 1.0000   
         C         C         1.0       0.6783744117321153  0.8608016900096126  0.8112793534861379 1.0000   
         C         C         1.0       0.7077059897744975  0.8806229584786442  0.8222848038524245 1.0000   
         C         C         1.0       0.7024348850500189  0.9018930781529497  0.8457078897052248 1.0000   
         C         C         1.0       0.6710526940883174  0.9045948258160468  0.858789487080541  1.0000   
         C         C         1.0       0.6420925207622833  0.8906172418511328  0.8453556772736684 1.0000   
         C         C         1.0       0.6466254139319697  0.8669620088072442  0.823325555734902  1.0000   
         C         C         1.0       0.659898368635539   0.7816657059135289  0.8184848332264957 1.0000   
         C         C         1.0       0.6660296564562485  0.7568422587731461  0.8396186825809003 1.0000   
         C         C         1.0       0.6988998811505251  0.7479127424938444  0.8485994249202634 1.0000   
         C         C         1.0       0.7271152556109709  0.7665212921030587  0.8399125905274295 1.0000   
         C         C         1.0       0.7218013828343509  0.7935958150610899  0.8205203137210465 1.0000   
         C         C         1.0       0.6882866800424448  0.800452753952051   0.8090730093727192 1.0000   
         H         H         1.0       0.8611774438942728  0.7693258230256764  0.7204352724663088 1.0000   
         H         H         1.0       0.7648786134043157  0.7690095842361293  0.6713507575211749 1.0000   
         H         H         1.0       0.7711550821116304  0.70731526206229    0.6664110230257533 1.0000   
         H         H         1.0       0.8619525358825217  0.710941539054966   0.7206001150481945 1.0000   
         H         H         1.0       0.7488360684292371  0.8535926861247966  0.6776782778227715 1.0000   
         H         H         1.0       0.7453794188182724  0.8726031460109425  0.6304928240084443 1.0000   
         H         H         1.0       0.8476614760086064  0.8373420731005122  0.6133720408739629 1.0000   
         H         H         1.0       0.8528680597658543  0.8190433719530257  0.6651167266376267 1.0000   
         H         H         1.0       0.7452031120033372  0.7703623856101046  0.7230447258627987 1.0000   
         H         H         1.0       0.7037053353992968  0.7792032329861585  0.7554504468051871 1.0000   
         H         H         1.0       0.7330129384258889  0.883879415146068   0.7670677434421649 1.0000   
         H         H         1.0       0.7784100306829569  0.8750374087877008  0.7323829514501687 1.0000   
         H         H         1.0       0.5831852105287281  0.7866284698274355  0.7320832841516253 1.0000   
         H         H         1.0       0.637853253121347   0.7811641572405316  0.7634636246717611 1.0000   
         H         H         1.0       0.6584755363953751  0.8849634501492009  0.7546024202727357 1.0000   
         H         H         1.0       0.6052369587053662  0.8914765740223544  0.7218715547445275 1.0000   
         H         H         1.0       0.7337032631298428  0.8768604105324533  0.8142379477994841 1.0000   
         H         H         1.0       0.7253438715197266  0.9148554925637676  0.8550192743362587 1.0000   
         H         H         1.0       0.6161333007363925  0.898762083921742   0.8514658879918402 1.0000   
         H         H         1.0       0.6229246376195948  0.8521539807470887  0.8162148259728909 1.0000   
         H         H         1.0       0.6332632844722307  0.786722635511077   0.8113130438923111 1.0000   
         H         H         1.0       0.6447119748018301  0.7496507309814796  0.8502470937672788 1.0000   
         H         H         1.0       0.754161342594591   0.7598499144537136  0.8476366933086916 1.0000   
         H         H         1.0       0.7436546955221056  0.8075425073129701  0.8136331780354262 1.0000   
         C         C         1.0       0.36291998111066986           0.5883939427790739 0.4926605597530953 1.0000   
         C         C         1.0       0.396602931100678   0.5967901596083257  0.48936162512586945          1.0000   
         C         C         1.0       0.4056127704801397  0.6243941062462293  0.4723323226655301 1.0000   
         C         C         1.0       0.3805091514636341  0.6414166186054512  0.4571630396131939 1.0000   
         C         C         1.0       0.3455943108599578  0.6329628774156815  0.4611791102520406 1.0000   
         C         C         1.0       0.3376131161365995  0.6070497947203146  0.4794077438395962 1.0000   
         H         H         1.0       0.41715398981676005           0.5834733501188241 0.501078002292858  1.0000   
         H         H         1.0       0.4323931368441003  0.6309679629176514  0.4715110009798463 1.0000   
         H         H         1.0       0.323906711181624   0.6468699474783216  0.4508129403255041 1.0000   
         H         H         1.0       0.3119598152058031  0.6010740618266603  0.48414501506177593          1.0000   
         C         C         1.0       0.35502565291136534           0.6428748533996673 0.39381009327519245          1.0000   
         C         C         1.0       0.36208559309005767           0.6740861126218136 0.4073673259164698 1.0000   
         C         C         1.0       0.34675980250404054           0.7038693990600415 0.3966417705608987 1.0000   
         C         C         1.0       0.323252834832755   0.7018394496282387  0.37377134055468275          1.0000   
         C         C         1.0       0.31717563406669513           0.6697856717227482 0.3601080354392098 1.0000   
         C         C         1.0       0.3324309144337036  0.6414487542135618  0.3717760984880446 1.0000   
         C         C         1.0       0.38945055499744946           0.6715681001284761 0.4338710851139197 1.0000   
         C         C         1.0       0.42367783038516826           0.6641556139657225 0.41597149861760724          1.0000   
         C         C         1.0       0.43687459178919685           0.6933752215782613 0.4008916403708193 1.0000   
         C         C         1.0       0.46782773300870256           0.6904681771404003 0.3864959136373084 1.0000   
         C         C         1.0       0.4833541954911941  0.6603494784936483  0.3827087142957127 1.0000   
         C         C         1.0       0.47076701723739073           0.6316689855343848 0.3955067755440124 1.0000   
         C         C         1.0       0.4410054032856715  0.6337330864733531  0.41242971824020813          1.0000   
         C         C         1.0       0.37157085792861677           0.7247835853652873 0.46283082922051133          1.0000   
         C         C         1.0       0.37949724920878597           0.7527347748453931 0.4797338601601409 1.0000   
         C         C         1.0       0.41298160663744377           0.758500584794313  0.49055878232226663          1.0000   
         C         C         1.0       0.4392940227296723  0.7334372994782435  0.48388230649893377          1.0000   
         C         C         1.0       0.43038005850867067           0.7049436532663358 0.4672605598543088 1.0000   
         C         C         1.0       0.3974879600339559  0.7018094309959335  0.4552979434247769 1.0000   
         C         C         1.0       0.42208614901538677           0.7917762883795104 0.5107033980642675 1.0000   
         C         C         1.0       0.3705904988256005  0.8723355073849353  0.458886516403834  1.0000   
         C         C         1.0       0.36342596341354605           0.8676965732439305 0.4875995117647267 1.0000   
         C         C         1.0       0.3785073435504066  0.8417440400968017  0.5023835314356028 1.0000   
         C         C         1.0       0.40476146585902906           0.8229762054249281 0.4917712034731864 1.0000   
         C         C         1.0       0.41421032984662176           0.82887971084184   0.4637189669983316 1.0000   
         C         C         1.0       0.3968769977165799  0.8521330301497315  0.44720269039050514          1.0000   
         C         C         1.0       0.46425490710198175           0.7936282379478473 0.5177837335115857 1.0000   
         C         C         1.0       0.4788229193301776  0.77060425613657    0.5370970579211907 1.0000   
         C         C         1.0       0.5137228747911504  0.7646957481892195  0.5369788471804556 1.0000   
         C         C         1.0       0.5350983886552902  0.78038775663273    0.5172401159434274 1.0000   
         C         C         1.0       0.5227513961047516  0.8053728414303966  0.4999271177574055 1.0000   
         C         C         1.0       0.48676704452027586           0.8124353982844724 0.5000562125628493 1.0000   
         C         C         1.0       0.4134470384062314  0.8087353032185547  0.5636216690986757 1.0000   
         C         C         1.0       0.4068661493796144  0.8030801158064313  0.5910797771206477 1.0000   
         C         C         1.0       0.39164206426923337           0.7728667740817272 0.6002702918348903 1.0000   
         C         C         1.0       0.38174677966436077           0.7484219408791426 0.5798397285624272 1.0000   
         C         C         1.0       0.3862339268565651  0.7549458013597875  0.5503645016783417 1.0000   
         C         C         1.0       0.4032468768240243  0.7855069707215708  0.5422765839367187 1.0000   
         H         H         1.0       0.36824908130169115           0.6200728441679397 0.399477786324301  1.0000   
         H         H         1.0       0.3559795939987022  0.7269711065104911  0.4049689281941147 1.0000   
         H         H         1.0       0.3119303001040885  0.7239793038526595  0.36408156548277865          1.0000   
         H         H         1.0       0.33447283578726195           0.6178237183671307 0.35934763119154606          1.0000   
         H         H         1.0       0.4245019913728013  0.7175707436738956  0.4017691717730721 1.0000   
         H         H         1.0       0.47777366841419366           0.7127271604512334 0.3763908019251332 1.0000   
         H         H         1.0       0.4852859327232919  0.6080449216314228  0.39347609307725384          1.0000   
         H         H         1.0       0.4324902497092646  0.6113289873972698  0.42285031346272034          1.0000   
         H         H         1.0       0.34530603913182656           0.7226284712336204 0.4539239864069985 1.0000   
         H         H         1.0       0.35968962522564973           0.7718036601533682 0.4844461105666573 1.0000   
         H         H         1.0       0.46696556958162044           0.737015541358081  0.48922936025063185          1.0000   
         H         H         1.0       0.44942364483120323           0.6858248471573304 0.46280528253017655          1.0000   
         H         H         1.0       0.3440524489632658  0.8827147898362492  0.4985570785958953 1.0000   
         H         H         1.0       0.3679633648273222  0.8398056150715157  0.5234311873344488 1.0000   
         H         H         1.0       0.4328271097913372  0.8108083386543139  0.4549838799199279 1.0000   
         H         H         1.0       0.40065396766465233           0.8548476020795526 0.42313622333995643          1.0000   
         H         H         1.0       0.4647536824132043  0.7515849081566327  0.549116316970651  1.0000   
         H         H         1.0       0.5253694695420372  0.7445149644065712  0.5502701917098523 1.0000   
         H         H         1.0       0.5392091059439771  0.8165347698427807  0.4833685399422622 1.0000   
         H         H         1.0       0.4773441871476807  0.8298316896905279  0.4848874045660664 1.0000   
         H         H         1.0       0.429164281368991   0.8321752362060708  0.5601229228146819 1.0000   
         H         H         1.0       0.4135546846340362  0.8241637811357857  0.6060186548112092 1.0000   
         H         H         1.0       0.37184637168947116           0.7241015920573101 0.5860134004686315 1.0000   
         H         H         1.0       0.37743206237176535           0.7356702501061695 0.5356411616642934 1.0000   
         C         C         1.0       0.3357394934113237  0.8526090249950479  0.8316362670208445 1.0000   
         C         C         1.0       0.3235714354437674  0.8333127556317049  0.808513092001801  1.0000   
         C         C         1.0       0.3448920652732796  0.8178688071582138  0.7884378820387264 1.0000   
         C         C         1.0       0.381785125624565   0.8228679241172796  0.7904877617609847 1.0000   
         C         C         1.0       0.3941358697642022  0.8435813861558552  0.8136791859438601 1.0000   
         C         C         1.0       0.3719355515731626  0.8563508710534282  0.8341091164160757 1.0000   
         H         H         1.0       0.2959001286695411  0.8259699275886759  0.8055077546517703 1.0000   
         H         H         1.0       0.33265545329168555           0.7998862913104663 0.7734429636564295 1.0000   
         H         H         1.0       0.42174731668436366           0.8506038547819423 0.8172872014857023 1.0000   
         H         H         1.0       0.38302733000441525           0.8749479088965859 0.8498945726663285 1.0000   
         C         C         1.0       0.4487845774940668  0.854336037033818   0.7631978485168914 1.0000   
         C         C         1.0       0.44343894316077626           0.8189882124534015 0.7627165849341744 1.0000   
         C         C         1.0       0.468765702689743   0.7982556903458028  0.7500252989249209 1.0000   
         C         C         1.0       0.4969574958331314  0.810586087304086   0.7369572582783107 1.0000   
         C         C         1.0       0.5032813934692694  0.8461621326503028  0.7381586862386271 1.0000   
         C         C         1.0       0.47909108935047084           0.8673725852076246 0.7523435869667404 1.0000   
         C         C         1.0       0.40941413604266885           0.7995724772889728 0.7710826913643326 1.0000   
         C         C         1.0       0.3942226124891537  0.7930486664606125  0.7387375425469254 1.0000   
         C         C         1.0       0.40036119675955395           0.7639628562112062 0.7233829506942469 1.0000   
         C         C         1.0       0.3904913987982336  0.7595959698948885  0.6950686363522225 1.0000   
         C         C         1.0       0.3763287961514539  0.7859864074798044  0.6801301296412071 1.0000   
         C         C         1.0       0.37040142004977206           0.8161196952661741 0.6946740989684806 1.0000   
         C         C         1.0       0.3778109159949121  0.8192531648504764  0.7230793914859854 1.0000   
         C         C         1.0       0.44289973854343856           0.7616989730402053 0.8074104997725031 1.0000   
         C         C         1.0       0.4508261945392383  0.7309949572130452  0.8190814277154647 1.0000   
         C         C         1.0       0.4279861191214299  0.7026058747478918  0.8148696326321941 1.0000   
         C         C         1.0       0.3945587865591957  0.710842141280968   0.8035908057013913 1.0000   
         C         C         1.0       0.38770976394443823           0.7418809133700465 0.791402022655387  1.0000   
         C         C         1.0       0.4126529021485786  0.7671940128875903  0.7907453511710226 1.0000   
         C         C         1.0       0.43795318854827464           0.6629826773853692 0.8201357783265973 1.0000   
         C         C         1.0       0.43047293676523846           0.626145313157269  0.7312193125436706 1.0000   
         C         C         1.0       0.460911134434484   0.6397542692681606  0.7420690548325891 1.0000   
         C         C         1.0       0.4643126852379258  0.6517036350467972  0.7705578586457595 1.0000   
         C         C         1.0       0.4358319710410277  0.6490857353054249  0.788368042838995  1.0000   
         C         C         1.0       0.406187255990048   0.6348114147012721  0.7768861645896816 1.0000   
         C         C         1.0       0.4037264899747816  0.6217809579033068  0.749126493202189  1.0000   
         C         C         1.0       0.4093769285949429  0.6434179941520857  0.8394848160849858 1.0000   
         C         C         1.0       0.38814170441349566           0.659630321633432  0.8592038806869166 1.0000   
         C         C         1.0       0.3613570050732097  0.640848452509433   0.8723434474389802 1.0000   
         C         C         1.0       0.3581883556005683  0.606314737004458   0.8701734385209782 1.0000   
         C         C         1.0       0.3844333895074507  0.5888860130717819  0.8553160690568761 1.0000   
         C         C         1.0       0.40886616959773114           0.6059027127761907 0.8406464116911677 1.0000   
         C         C         1.0       0.5003783366064061  0.6369952698371787  0.83031004917152   1.0000   
         C         C         1.0       0.5322017630569863  0.6332086000391162  0.8452368933339205 1.0000   
         C         C         1.0       0.5376895510965666  0.6539224757756356  0.8691707509141449 1.0000   
         C         C         1.0       0.5115372339192725  0.6732784076186762  0.8803356894297822 1.0000   
         C         C         1.0       0.4807520021495306  0.6759307328523247  0.8646181674912118 1.0000   
         C         C         1.0       0.47429272110669946           0.6588185627539807 0.8395348270891693 1.0000   
         H         H         1.0       0.4303514501596811  0.8712479307447765  0.7716393283485651 1.0000   
         H         H         1.0       0.4638666172339989  0.7716259754969943  0.7456715136204344 1.0000   
         H         H         1.0       0.513063055598951   0.7926397761332311  0.7257889242630775 1.0000   
         H         H         1.0       0.4816093103229224  0.8949867397234555  0.7521056812367417 1.0000   
         H         H         1.0       0.413759598017128   0.7443765140106366  0.7347483546789416 1.0000   
         H         H         1.0       0.39497538986977015           0.7329852969823066 0.6849409730173531 1.0000   
         H         H         1.0       0.35644255116776224           0.835961454809831  0.6820247229612089 1.0000   
         H         H         1.0       0.3737539533087624  0.8431566496674089  0.7339613741303246 1.0000   
         H         H         1.0       0.46171333316083624           0.7835700988405293 0.809962968174974  1.0000   
         H         H         1.0       0.47800975658300515           0.727782283500634  0.8264139663062733 1.0000   
         H         H         1.0       0.37216925241509835           0.6933656048434645 0.8040381240675497 1.0000   
         H         H         1.0       0.3611978273108586  0.7482869555102243  0.7829153358891648 1.0000   
         H         H         1.0       0.484057268414336   0.644754692844271   0.727739566630235  1.0000   
         H         H         1.0       0.4861747019669284  0.6658671907974727  0.7787135649099934 1.0000   
         H         H         1.0       0.3815595100381832  0.6320201955866003  0.7892201088011818 1.0000   
         H         H         1.0       0.37909004297702814           0.6101084037077755 0.7415206879191119 1.0000   
         H         H         1.0       0.3839367461496982  0.6869880773044563  0.8617505529789208 1.0000   
         H         H         1.0       0.3440284241763866  0.6539159889794998  0.8864244123504731 1.0000   
         H         H         1.0       0.38466260162596394           0.5611782323294158 0.8541144959712492 1.0000   
         H         H         1.0       0.4270508959843086  0.591720501144356   0.8279468295705049 1.0000   
         H         H         1.0       0.49977006203950225           0.6222774416472411 0.8109602038994036 1.0000   
         H         H         1.0       0.553205487254562   0.6164178710466869  0.8362647232336777 1.0000   
         H         H         1.0       0.5163607020300592  0.685181339255728   0.9012121495716644 1.0000   
         H         H         1.0       0.4614412383471504  0.6933498484293534  0.8744772693871234 1.0000   
         C         C         1.0       0.5896664426866004  0.46052402734671266           0.46360415404549354          1.0000   
         C         C         1.0       0.5616471977640062  0.47891192301146585           0.45160288580038416          1.0000   
         C         C         1.0       0.5480095489169824  0.47120751005815215           0.42559321566295366          1.0000   
         C         C         1.0       0.5598751404567867  0.4432424098684351  0.4099547134743066 1.0000   
         C         C         1.0       0.5830124429404213  0.4210817010707683  0.4235681126447842 1.0000   
         C         C         1.0       0.5992993874325646  0.43009952825631637           0.45004682299939364          1.0000   
         H         H         1.0       0.5517152679941055  0.4986931412598072  0.4646986605516113 1.0000   
         H         H         1.0       0.5285299827456741  0.48742371937171985           0.4177405688313473 1.0000   
         H         H         1.0       0.5957083232895583  0.39694986653174186           0.414868577818573  1.0000   
         H         H         1.0       0.6219828598041373  0.41479118708972174           0.45683060432060746          1.0000   
         C         C         1.0       0.5938268254539271  0.40293937439579375           0.3566984175201567 1.0000   
         C         C         1.0       0.5578646683428505  0.4038389486347371  0.3603363994660199 1.0000   
         C         C         1.0       0.5389930073082992  0.3782100398619565  0.34731587783420953          1.0000   
         C         C         1.0       0.5546578116324943  0.3469435720262617  0.3423536067332866 1.0000   
         C         C         1.0       0.5914914159411576  0.344989350778605   0.34343127092367637          1.0000   
         C         C         1.0       0.6098869749704088  0.3737004253562766  0.3485145478324889 1.0000   
         C         C         1.0       0.5404428939728125  0.43499788799733097           0.377951228220899  1.0000   
         C         C         1.0       0.5460190652209724  0.4669524403318895  0.3567626070434696 1.0000   
         C         C         1.0       0.5279652914496662  0.46740876108303764           0.32945201737269175          1.0000   
         C         C         1.0       0.5302817100432169  0.4946273479999436  0.3118510306659949 1.0000   
         C         C         1.0       0.5512642651894798  0.5221854850775396  0.3190094069987483 1.0000   
         C         C         1.0       0.5726487545429003  0.5211969181326873  0.34335167529113547          1.0000   
         C         C         1.0       0.5700233827352236  0.4924112809907675  0.3612476943398688 1.0000   
         C         C         1.0       0.49541514196850706           0.3969466052829037 0.4024838952739954 1.0000   
         C         C         1.0       0.46606687667453817           0.3926669549468353 0.41812689318188473          1.0000   
         C         C         1.0       0.4388190202252427  0.41692240347106124           0.41676391898236603          1.0000   
         C         C         1.0       0.4420418833924537  0.4442197116105819  0.39793178069510476          1.0000   
         C         C         1.0       0.4738609651408863  0.4496803671801631  0.38417371616639273          1.0000   
         C         C         1.0       0.5011513496938605  0.4261075128664549  0.38699065774265484          1.0000   
         C         C         1.0       0.4027891867178842  0.41236323331703284           0.43444367257745226          1.0000   
         C         C         1.0       0.33770454286513923           0.33862071359190465          0.3877927335508422 1.0000   
         C         C         1.0       0.3651366404322857  0.3275614221848327  0.404438895878265  1.0000   
         C         C         1.0       0.38797718606876275           0.3500771767931883 0.41706585738092977          1.0000   
         C         C         1.0       0.3818280855544563  0.385844096311724   0.4148350861192673 1.0000   
         C         C         1.0       0.358143634691231   0.3976055434951131  0.392707248354171  1.0000   
         C         C         1.0       0.337168868677636   0.37269877419179165           0.3802943634341406 1.0000   
         C         C         1.0       0.3843207135781739  0.44703422913661955           0.44381859344947594          1.0000   
         C         C         1.0       0.40517339955989357           0.47477831479522437          0.45188353792495695          1.0000   
         C         C         1.0       0.3901506394729098  0.5020180393248902  0.466569759743347  1.0000   
         C         C         1.0       0.354675272195153   0.5013781315451554  0.47316772628913534          1.0000   
         C         C         1.0       0.3331293020093001  0.4765489396799171  0.46149126698221826          1.0000   
         C         C         1.0       0.3491786668901515  0.4477306343739285  0.4478841239823505 1.0000   
         C         C         1.0       0.3884854304575524  0.3780297060641983  0.4796858036513074 1.0000   
         C         C         1.0       0.390508831590713   0.370780909322617   0.5086937430529267 1.0000   
         C         C         1.0       0.4167584515394304  0.38661833938903556           0.5251837772670086 1.0000   
         C         C         1.0       0.44342351717127154           0.40370440079507036          0.5114696865567321 1.0000   
         C         C         1.0       0.4408581754452386  0.4102611026977388  0.4830105600766091 1.0000   
         C         C         1.0       0.4114342562225285  0.39911556739019083           0.46607164670709483          1.0000   
         H         H         1.0       0.6104178056800774  0.423318784389128   0.3651454072368276 1.0000   
         H         H         1.0       0.5112092252411389  0.3782979166962677  0.34618818435154314          1.0000   
         H         H         1.0       0.5376596534859264  0.3256923762559833  0.33427201701288284          1.0000   
         H         H         1.0       0.6368758179030969  0.3696145904599156  0.35319396356864124          1.0000   
         H         H         1.0       0.5105970766886108  0.44523197630774286           0.322312911709911  1.0000   
         H         H         1.0       0.5191883930361632  0.4938606924400134  0.29007635897649686          1.0000   
         H         H         1.0       0.5909568431494562  0.5398505380141706  0.34765678112407794          1.0000   
         H         H         1.0       0.5879878419849552  0.495258092211756   0.3781533915726392 1.0000   
         H         H         1.0       0.5170753862965538  0.3781765577036016  0.4018071851355877 1.0000   
         H         H         1.0       0.46314491045296013           0.36876545219110896          0.43015706977733437          1.0000   
         H         H         1.0       0.4228559234131003  0.46428410415412663           0.3964559284447998 1.0000   
         H         H         1.0       0.4789938456201069  0.47431268936940857           0.374300077016904  1.0000   
         H         H         1.0       0.36996764544086164           0.30183734242153143          0.41085176163202125          1.0000   
         H         H         1.0       0.4060679620914515  0.3376927650286407  0.4309108411045256 1.0000   
         H         H         1.0       0.3542979478376556  0.4256079638545766  0.3901108391802658 1.0000   
         H         H         1.0       0.3191286437854216  0.3801658905639752  0.3641891610383931 1.0000   
         H         H         1.0       0.43276438051340427           0.47164129748328537          0.45133622011420654          1.0000   
         H         H         1.0       0.4040224097756727  0.5225037846446386  0.47780698453424325          1.0000   
         H         H         1.0       0.3061585883160954  0.47602871341538733           0.465657090892961  1.0000   
         H         H         1.0       0.33231992244062714           0.4264495845409795 0.4421739734771454 1.0000   
         H         H         1.0       0.36492688469483336           0.3690416743575969 0.467946097256084  1.0000   
         H         H         1.0       0.3709299278238927  0.35397254881267803           0.5177347918698049 1.0000   
         H         H         1.0       0.4669121384815588  0.4112565825904163  0.5216231959569676 1.0000   
         H         H         1.0       0.46251712016106084           0.42444013722033586          0.47341833804241196          1.0000   
         C         C         1.0       0.3657895450886896  0.39339985943311573           0.7545052144793578 1.0000   
         C         C         1.0       0.37235582499392034           0.3787602525674525 0.728492777389719  1.0000   
         C         C         1.0       0.38980921786466394           0.3975900956380999 0.7079631406912611 1.0000   
         C         C         1.0       0.39823181452852435           0.4317362912903974 0.7130012887914297 1.0000   
         C         C         1.0       0.3923277745125221  0.445479994002587   0.7401207439197897 1.0000   
         C         C         1.0       0.3748178752866491  0.426462661171153   0.7602366195329234 1.0000   
         H         H         1.0       0.365200949647597   0.3537363213891938  0.7232107253869376 1.0000   
         H         H         1.0       0.39379271361433155           0.38305235816923616          0.6878894737605677 1.0000   
         H         H         1.0       0.3970515495028844  0.47239809167916114           0.7427960340862126 1.0000   
         H         H         1.0       0.3634847476369701  0.43926167645226144           0.778617094277219  1.0000   
         C         C         1.0       0.3793066570953911  0.5058342385281122  0.693499463148313  1.0000   
         C         C         1.0       0.4129958276210075  0.49207933469700976           0.6882085103507106 1.0000   
         C         C         1.0       0.43815948700900564           0.5134792810192846 0.6786291034760172 1.0000   
         C         C         1.0       0.43378632652244065           0.5477413228767191 0.6789960652959487 1.0000   
         C         C         1.0       0.4012572493445339  0.5617840279430816  0.6850224323142146 1.0000   
         C         C         1.0       0.3741536387689109  0.5403590848239569  0.6922206469531093 1.0000   
         C         C         1.0       0.4231543660027735  0.4525326070176598  0.690845585379843  1.0000   
         C         C         1.0       0.41871086072422015           0.44233716447996096          0.6570494575591371 1.0000   
         C         C         1.0       0.44672445178035886           0.4378174194026262 0.6389775837935004 1.0000   
         C         C         1.0       0.4419499300837097  0.4288342175472317  0.6100968356466463 1.0000   
         C         C         1.0       0.4077678704838467  0.4268459916979115  0.5993984886141964 1.0000   
         C         C         1.0       0.3796505175961594  0.43079548939422    0.6169998592191684 1.0000   
         C         C         1.0       0.3858098716639136  0.437820222857556   0.6457852505018893 1.0000   
         C         C         1.0       0.47257387630681386           0.46656204978036653          0.7258616302996137 1.0000   
         C         C         1.0       0.5044289362642583  0.4631934233325628  0.7372764656964436 1.0000   
         C         C         1.0       0.5244242692467349  0.4345684204855207  0.7326152071860926 1.0000   
         C         C         1.0       0.5102695725574162  0.4105004300761254  0.71361454483593   1.0000   
         C         C         1.0       0.47817848982510347           0.41476578637876826          0.7017820138949832 1.0000   
         C         C         1.0       0.4598978704790877  0.44396536330981307           0.7062022510367513 1.0000   
         C         C         1.0       0.5618465437857931  0.4301627182995056  0.7488934974898738 1.0000   
         C         C         1.0       0.6193871899576823  0.4515915971334421  0.6715865944189389 1.0000   
         C         C         1.0       0.6111777400583097  0.4783915011976935  0.6903740031430613 1.0000   
         C         C         1.0       0.5933032777044795  0.47176565905160656           0.7142353472196787 1.0000   
         C         C         1.0       0.5861837041925586  0.4387761276970369  0.7220102816014327 1.0000   
         C         C         1.0       0.5968632995993653  0.41215676113862654           0.7043605329118051 1.0000   
         C         C         1.0       0.6143319427294832  0.4183719221021792  0.6796819386961375 1.0000   
         C         C         1.0       0.5725258622436677  0.3934129762031761  0.7621636614597999 1.0000   
         C         C         1.0       0.5483167247198834  0.36859953988194116           0.7687318342140979 1.0000   
         C         C         1.0       0.5585577819156256  0.3368714833796844  0.7782089397946073 1.0000   
         C         C         1.0       0.5933304142146354  0.3317391675966877  0.7845050955772502 1.0000   
         C         C         1.0       0.6160055623599612  0.35943069432043534           0.7848923583437405 1.0000   
         C         C         1.0       0.6060310308285839  0.38902919268184033           0.7730079543876436 1.0000   
         C         C         1.0       0.5849904381253094  0.4749837656026221  0.7866516296707139 1.0000   
         C         C         1.0       0.5808471418921687  0.4957228699451973  0.8105542110282501 1.0000   
         C         C         1.0       0.5515707566682897  0.49550642167896036           0.8268829604366345 1.0000   
         C         C         1.0       0.528937321709854   0.46807793477893345           0.8219853456865726 1.0000   
         C         C         1.0       0.5331255930477311  0.4466952305405612  0.7987982821864467 1.0000   
         C         C         1.0       0.5594439240607691  0.45293226184861324           0.7789440410201554 1.0000   
         H         H         1.0       0.35822122403914614           0.48949504027264334          0.6962217082119764 1.0000   
         H         H         1.0       0.4629551832393354  0.5030710723700982  0.6749069265913455 1.0000   
         H         H         1.0       0.45542053308774044           0.5649063027445134 0.6756095302971007 1.0000   
         H         H         1.0       0.3462947161513904  0.5498801382014409  0.6957420245887412 1.0000   
         H         H         1.0       0.47312915863760224           0.4406999047688139 0.6473608523962141 1.0000   
         H         H         1.0       0.46340515849844155           0.42687957371515317          0.5972869353424171 1.0000   
         H         H         1.0       0.3534600839656717  0.4269937324899088  0.6074715578879326 1.0000   
         H         H         1.0       0.36302492746039183           0.4421191767236238 0.6594314696376417 1.0000   
         H         H         1.0       0.45955745483032884           0.49069065887139235          0.7310741727074512 1.0000   
         H         H         1.0       0.5127162691152728  0.48504783531209983           0.7504831052458855 1.0000   
         H         H         1.0       0.5239132864923222  0.388418112265976   0.7089511707463071 1.0000   
         H         H         1.0       0.46752410661650584           0.39330375614890023          0.6886362643448009 1.0000   
         H         H         1.0       0.6129281781228187  0.5052148292528917  0.6851896100626228 1.0000   
         H         H         1.0       0.5835191794949995  0.49208282887356086           0.7268696326680998 1.0000   
         H         H         1.0       0.5880476850411185  0.386371535162477   0.7096662792022435 1.0000   
         H         H         1.0       0.6199197514808281  0.39786352307499534           0.6656659559318054 1.0000   
         H         H         1.0       0.5208416955497864  0.37579468466793803           0.7650477062466697 1.0000   
         H         H         1.0       0.5396576299656162  0.3171280775683936  0.7823648125575723 1.0000   
         H         H         1.0       0.642109542155775   0.3577402103835507  0.7921430552839438 1.0000   
         H         H         1.0       0.6212895128610766  0.41165845290390557           0.7720138351212467 1.0000   
         H         H         1.0       0.6068981848894555  0.4800129920128534  0.7740032053710046 1.0000   
         H         H         1.0       0.5995386752738114  0.5156388557698833  0.8145798567123617 1.0000   
         H         H         1.0       0.5076807558989013  0.46219813541807525           0.837820026578396  1.0000   
         H         H         1.0       0.5115449393649051  0.42923262652230504           0.7938662451411744 1.0000   
         C         C         1.0       0.1779166743532894  0.2685797723642391  0.6812195595220015 1.0000   
         C         C         1.0       0.15182898187798444           0.25050628023685756          0.6941264884618942 1.0000   
         C         C         1.0       0.13821690812475726           0.26252854411342896          0.7190211675390791 1.0000   
         C         C         1.0       0.1502094071378095  0.29321256515012883           0.7327219171707311 1.0000   
         C         C         1.0       0.174611749983492   0.3112689035730937  0.7169432486334606 1.0000   
         C         C         1.0       0.1874339328988122  0.3001385339416835  0.6907273993195444 1.0000   
         H         H         1.0       0.1409722640578161  0.2271592889368341  0.685611116468716  1.0000   
         H         H         1.0       0.11973200954693852           0.24580977423102704          0.7299040423008507 1.0000   
         H         H         1.0       0.18545819608351163           0.3357568428941141 0.7274092298044094 1.0000   
         H         H         1.0       0.2082073221077453  0.3143494671982942  0.680370254527282  1.0000   
         C         C         1.0       0.1931557793490179  0.325337982200465   0.7854147640780329 1.0000   
         C         C         1.0       0.15766109683537163           0.33188429658676105          0.7815508809471765 1.0000   
         C         C         1.0       0.1417597445287342  0.3552582751659471  0.8003273358100162 1.0000   
         C         C         1.0       0.1619701911619429  0.3753819363628386  0.8194390093137869 1.0000   
         C         C         1.0       0.19702689974427745           0.3688288940605875 0.8226129408811942 1.0000   
         C         C         1.0       0.21193752865694304           0.3450107364878448 0.8045437416531037 1.0000   
         C         C         1.0       0.13358687314153928           0.3063207362237829 0.7625087736673354 1.0000   
         C         C         1.0       0.12543093444804243           0.27797604342693083          0.7867247989295086 1.0000   
         C         C         1.0       0.10146347965264679           0.2822871712683068 0.8083910182961294 1.0000   
         C         C         1.0       0.08863657272199488           0.2551419194116471 0.8221048697503986 1.0000   
         C         C         1.0       0.10300431039420066           0.22451748519213463          0.8186164667475317 1.0000   
         C         C         1.0       0.1336469294497565  0.22132203301028533           0.8037779823130694 1.0000   
         C         C         1.0       0.1451943639615292  0.24804142720592337           0.7884245663415737 1.0000   
         C         C         1.0       0.09257920582639056           0.35361319371964944          0.7391555427579971 1.0000   
         C         C         1.0       0.060106390610510374          0.36410927820733513          0.7266735399693098 1.0000   
         C         C         1.0       0.033272287400503364          0.3420281334376413 0.7234523769402015 1.0000   
         C         C         1.0       0.038538182059332904          0.30804366890123347          0.734050005601203  1.0000   
         C         C         1.0       0.06713453491408417           0.2994328796594902 0.7479745552888589 1.0000   
         C         C         1.0       0.0973137803160724  0.3201609958507891  0.7500246666553798 1.0000   
         C         C         1.0       0.9996141988536038  0.3472046290828255  0.703549964517808  1.0000   
         C         C         1.0       0.9133983100428182  0.3460560649351598  0.7645706903021707 1.0000   
         C         C         1.0       0.9343389872553616  0.3742272267277092  0.7601331463827702 1.0000   
         C         C         1.0       0.9633444302977622  0.3729261629993844  0.7438464979658681 1.0000   
         C         C         1.0       0.9695395963711599  0.3436608863351988  0.7287050412721167 1.0000   
         C         C         1.0       0.9495072520064493  0.3147196369251773  0.7339369077078414 1.0000   
         C         C         1.0       0.9225468882834825  0.31585758241838935           0.7537431743824787 1.0000   
         C         C         1.0       0.0009295062045893143         0.3202748727593611 0.6768785128876003 1.0000   
         C         C         1.0       0.03331303735184066           0.31592541509949773          0.6626721738030563 1.0000   
         C         C         1.0       0.03867288984782791           0.2876562380336662 0.646726169472971  1.0000   
         C         C         1.0       0.012573544285716443          0.263777852057112  0.6428516153005515 1.0000   
         C         C         1.0       0.979129224397448   0.2703316985918232  0.6524463065796176 1.0000   
         C         C         1.0       0.9725201224602373  0.30000637471161623           0.6674526932367356 1.0000   
         C         C         1.0       0.9544948015091111  0.3879137999456538  0.6772482739127527 1.0000   
         C         C         1.0       0.9444398985892006  0.4153755679485001  0.6599198130300846 1.0000   
         C         C         1.0       0.9692239915544498  0.43710133294720294           0.6490188668259281 1.0000   
         C         C         1.0       0.0035935925409174008         0.4326603528863593 0.6568080984898543 1.0000   
         C         C         1.0       0.013039991540630735          0.40554275637175197          0.6733005041990068 1.0000   
         C         C         1.0       0.9901934617508251  0.3820974201432554  0.6853809461732093 1.0000   
         H         H         1.0       0.20665671841357544           0.3061296837332119 0.7720116387700726 1.0000   
         H         H         1.0       0.1127419338165403  0.3554130986687628  0.8026174002270209 1.0000   
         H         H         1.0       0.14996674852968672           0.3947200112784775 0.8345395617713762 1.0000   
         H         H         1.0       0.24027338129142015           0.34111130233871834          0.80611645350294   1.0000   
         H         H         1.0       0.08655996236857999           0.30533788886101776          0.8097274605063115 1.0000   
         H         H         1.0       0.06371581569342966           0.2587075624564378 0.8333446399813611 1.0000   
         H         H         1.0       0.14519723936166426           0.19578750796847003          0.8013353209067369 1.0000   
         H         H         1.0       0.16901638679635778           0.24408877580703245          0.7754083737068217 1.0000   
         H         H         1.0       0.11388526649938857           0.37027570221872375          0.7416517004569753 1.0000   
         H         H         1.0       0.05781440183971487           0.3918399275520581 0.7211926355641423 1.0000   
         H         H         1.0       0.01779766337012445           0.2885035423485613 0.730039302625733  1.0000   
         H         H         1.0       0.07048825554113569           0.2737339546179889 0.7541360799970305 1.0000   
         H         H         1.0       0.9263566828540926  0.39913259258141115           0.7697905123611726 1.0000   
         H         H         1.0       0.9767920928326017  0.3965443663897492  0.7408621753176453 1.0000   
         H         H         1.0       0.9559862985398068  0.2917745871411943  0.7236505680123037 1.0000   
         H         H         1.0       0.9052260621982257  0.2952590726937792  0.7561211405537919 1.0000   
         H         H         1.0       0.05722602599056792           0.3287064980210096 0.6702003082786872 1.0000   
         H         H         1.0       0.063000529587113   0.27926687452587456           0.6381540862666143 1.0000   
         H         H         1.0       0.9582190356499862  0.2523181106867189  0.6513217818734464 1.0000   
         H         H         1.0       0.947435232292494   0.3041008460275312  0.6776841289924203 1.0000   
         H         H         1.0       0.9329596629624165  0.37001414965497176           0.6823763398670533 1.0000   
         H         H         1.0       0.9160476667528054  0.4151422898268626  0.6528583879084794 1.0000   
         H         H         1.0       0.02504881891047339           0.4481127734855585 0.6487908606959449 1.0000   
         H         H         1.0       0.04108742607928484           0.40239816970256376          0.67688421374014   1.0000   
         C         C         1.0       0.8750268960915177  0.32745447834233765           0.45065653105487685          1.0000   
         C         C         1.0       0.8889981967316883  0.357338093902234   0.4606255758842423 1.0000   
         C         C         1.0       0.9119322347998898  0.35857627251513813           0.4828519695837097 1.0000   
         C         C         1.0       0.9210595332620117  0.32950699593089045           0.4984862204101705 1.0000   
         C         C         1.0       0.9053291167783886  0.2992002766951374  0.48923421613130147          1.0000   
         C         C         1.0       0.8838394235462078  0.2978789269476369  0.4649319974706039 1.0000   
         H         H         1.0       0.8806991853267193  0.3819333502651121  0.4518293183525456 1.0000   
         H         H         1.0       0.923381262445841   0.38282290306695643           0.49041244419819546          1.0000   
         H         H         1.0       0.9088146611147603  0.27478032093510674           0.5008459574299154 1.0000   
         H         H         1.0       0.8714559740033195  0.2749878633233948  0.4587475181365843 1.0000   
         C         C         1.0       0.9056099426429582  0.29437096332360074           0.5569320475296383 1.0000   
         C         C         1.0       0.93977555401566    0.30066136264239607           0.5472414117790523 1.0000   
         C         C         1.0       0.9672378591097044  0.27782845675870194           0.5566614263648954 1.0000   
         C         C         1.0       0.9578713482000694  0.248470816573904   0.5699078981716772 1.0000   
         C         C         1.0       0.9249507115362885  0.24388798605365836           0.5791738733349325 1.0000   
         C         C         1.0       0.8984196069019866  0.2667764281043891  0.5724014813068875 1.0000   
         C         C         1.0       0.9504608834762701  0.32998271895599474           0.5241780405492157 1.0000   
         C         C         1.0       0.9537853957551478  0.3623751768192533  0.5456000238719573 1.0000   
         C         C         1.0       0.9850049146684902  0.3679358301472936  0.5612913381590026 1.0000   
         C         C         1.0       0.9868405453750209  0.39554470079846604           0.5806958484764491 1.0000   
         C         C         1.0       0.9616422423779671  0.42138967713423703           0.5797906311549347 1.0000   
         C         C         1.0       0.9312373642253423  0.4146209757509446  0.5651506539712325 1.0000   
         C         C         1.0       0.9270030469388749  0.38451056349975754           0.5503900835386171 1.0000   
         C         C         1.0       0.9923336575483387  0.289894636696573   0.49476187946225236          1.0000   
         C         C         1.0       0.022231157232760257          0.2850161336939263 0.4793275455710377 1.0000   
         C         C         1.0       0.044080605999597955          0.3123584539566432 0.47321189453636037          1.0000   
         C         C         1.0       0.03522371774476274           0.3449637806946336 0.48349390844044976          1.0000   
         C         C         1.0       0.004973388531393841          0.3489496753151021 0.4961880451646387 1.0000   
         C         C         1.0       0.9828987626418444  0.3220482150774592  0.5041518892693408 1.0000   
         C         C         1.0       0.08206595159549934           0.30589216519435   0.4593511368871771 1.0000   
         C         C         1.0       0.13664878772231379           0.3021568261393146 0.5428131190914849 1.0000   
         C         C         1.0       0.117241320493964   0.27516550645943405           0.5333632550244307 1.0000   
         C         C         1.0       0.10202997597187383           0.2756173884362462 0.5053722599395121 1.0000   
         C         C         1.0       0.10402085744387743           0.3043163375763844 0.4884167526876464 1.0000   
         C         C         1.0       0.1211395779572052  0.33224629879012046           0.5010871339725465 1.0000   
         C         C         1.0       0.13539302723934712           0.3313465989979673 0.5279556042702009 1.0000   
         C         C         1.0       0.0996085131583006  0.33416008075145653           0.4390870624546962 1.0000   
         C         C         1.0       0.0772830553992613  0.3553465367856214  0.42317908924151637          1.0000   
         C         C         1.0       0.09088947066778348           0.379479605552723  0.4052158283550205 1.0000   
         C         C         1.0       0.12592130122801734           0.3818775176562571 0.399927855919285  1.0000   
         C         C         1.0       0.1487926442884181  0.3611826302738859  0.41424883312900407          1.0000   
         C         C         1.0       0.13559095837114596           0.3388691229033359 0.4346985226081304 1.0000   
         C         C         1.0       0.10824179915751288           0.24815602358638106          0.4389736644427714 1.0000   
         C         C         1.0       0.10277181005974612           0.21931810587364894          0.4213078281736678 1.0000   
         C         C         1.0       0.0762100897772433  0.21931996834641942           0.4005745729782985 1.0000   
         C         C         1.0       0.0538342253636066  0.2462620871586361  0.3974781725388334 1.0000   
         C         C         1.0       0.05714466208773805           0.2707471945903755 0.4167611467551717 1.0000   
         C         C         1.0       0.0829495960605251  0.27443880188737174           0.4379738850394851 1.0000   
         H         H         1.0       0.8882742257551602  0.312447607602225   0.5520515743247623 1.0000   
         H         H         1.0       0.9945377089929734  0.28369538288039636           0.5542427523603809 1.0000   
         H         H         1.0       0.9769248376116245  0.2281562695796877  0.5761599226456106 1.0000   
         H         H         1.0       0.8725523549370257  0.25763604720920713           0.5770074218773141 1.0000   
         H         H         1.0       0.0053550886208306725         0.3482574089128957 0.5606686075554883 1.0000   
         H         H         1.0       0.008241666490280684          0.4022209670815465 0.5941601945023596 1.0000   
         H         H         1.0       0.909559046173026   0.430924011366351   0.5690308570582787 1.0000   
         H         H         1.0       0.9025933213135111  0.38239214428698026           0.5392359375725237 1.0000   
         H         H         1.0       0.9753851219706944  0.26970545697630766           0.4993076450182612 1.0000   
         H         H         1.0       0.03232563780047215           0.26015443858655607          0.4741882951646835 1.0000   
         H         H         1.0       0.05118518331040911           0.36740078593073905          0.4826552953136345 1.0000   
         H         H         1.0       0.9990625198068096  0.3737234638886733  0.5045286193982372 1.0000   
         H         H         1.0       0.11579505313617923           0.2528268848360152 0.5470558191666697 1.0000   
         H         H         1.0       0.0870385175842528  0.2537105922280827  0.49569316331255786          1.0000   
         H         H         1.0       0.12175754789889104           0.3572504067216405 0.4903566731879789 1.0000   
         H         H         1.0       0.14898080293904406           0.3526321027972717 0.5374429283346064 1.0000   
         H         H         1.0       0.04972038204450868           0.3533383710608662 0.4264580075045701 1.0000   
         H         H         1.0       0.07393464241034486           0.39874846313883916          0.39563132620437064          1.0000   
         H         H         1.0       0.17625514826918304           0.3638464761289418 0.40969583487148015          1.0000   
         H         H         1.0       0.15503525824843747           0.32419076574819516          0.4458349963392193 1.0000   
         H         H         1.0       0.1289922889039246  0.24839198705384113           0.4566743662361984 1.0000   
         H         H         1.0       0.11828482214798239           0.19767429332896388          0.4222524984409564 1.0000   
         H         H         1.0       0.03334966749397128           0.24726940874969514          0.37972567241368804          1.0000   
         H         H         1.0       0.037304473758489776          0.2908509257034236 0.41567542806140423          1.0000   
         C         C         1.0       0.05662289753872228           0.9687517074686017 0.6783246275925701 1.0000   
         C         C         1.0       0.07285509536457194           0.9904089106587035 0.6964967673177656 1.0000   
         C         C         1.0       0.0821643017554184  0.9801540306557698  0.7238813644421354 1.0000   
         C         C         1.0       0.07643295123600731           0.9466116149490204 0.7326338002275913 1.0000   
         C         C         1.0       0.06137913858635977           0.9237382075011106 0.7110265811734695 1.0000   
         C         C         1.0       0.050721381144963405          0.9354379117110548 0.6846724640353421 1.0000   
         H         H         1.0       0.07656777794425315           0.016822470751846952         0.6895672117073223 1.0000   
         H         H         1.0       0.09932757437147266           0.9964657431859274 0.7367600353288881 1.0000   
         H         H         1.0       0.06211464177277739           0.8960684016163647 0.7130382497919691 1.0000   
         H         H         1.0       0.039952595664753066          0.9152694914252394 0.6705820034735541 1.0000   
         C         C         1.0       0.03412260639544739           0.9030700111149624 0.7759918738049947 1.0000   
         C         C         1.0       0.07013257769549998           0.9010409259841189 0.7758443019887568 1.0000   
         C         C         1.0       0.08707439883281595           0.8734625345752963 0.7882665507341868 1.0000   
         C         C         1.0       0.06730827503454836           0.8457986904069689 0.7979254951913586 1.0000   
         C         C         1.0       0.03102384041953776           0.8477404848001965 0.7966422461678256 1.0000   
         C         C         1.0       0.014112689058846105          0.8769721288382907 0.7863458624033549 1.0000   
         C         C         1.0       0.09258882655226358           0.9311480305613238 0.7623666174441951 1.0000   
         C         C         1.0       0.09725076160239933           0.9540495947477494 0.7919597087969612 1.0000   
         C         C         1.0       0.12114757238784274           0.9427664631349127 0.8136330351236705 1.0000   
         C         C         1.0       0.12733207282853629           0.9622520782606814 0.8379841165963102 1.0000   
         C         C         1.0       0.11359154812094259           0.9939086142553577 0.8420097707763814 1.0000   
         C         C         1.0       0.09031096101391174           0.005001017496528926         0.8204852094202671 1.0000   
         C         C         1.0       0.08053419071342621           0.9854181847940001 0.797300798346317  1.0000   
         C         C         1.0       0.14063480897839    0.8925030091420232  0.7365802669969208 1.0000   
         C         C         1.0       0.17283562945857792           0.8873460458644474 0.7259704903684134 1.0000   
         C         C         1.0       0.19869754713792415           0.9121076127884763 0.7284864920996803 1.0000   
         C         C         1.0       0.1893303394678249  0.9438016433891727  0.7405227476398331 1.0000   
         C         C         1.0       0.15573620103614988           0.9481336166929806 0.7515628792578203 1.0000   
         C         C         1.0       0.13061277674515265           0.9216839789336743 0.7500148010181469 1.0000   
         C         C         1.0       0.23810984408343558           0.9017309117867832 0.7235079106327413 1.0000   
         C         C         1.0       0.2746174825240719  0.9021156904786141  0.8138769814197822 1.0000   
         C         C         1.0       0.2500850499778867  0.8794684558567335  0.8048944609878521 1.0000   
         C         C         1.0       0.24032392040692896           0.8788056614126306 0.7767714764108474 1.0000   
         C         C         1.0       0.2524966263084264  0.9024861951390434  0.7565430022916242 1.0000   
         C         C         1.0       0.2732078458888184  0.9283615432132369  0.767301738291043  1.0000   
         C         C         1.0       0.28674210292011837           0.9270231685259147 0.7947430674341917 1.0000   
         C         C         1.0       0.25749050998772544           0.92802297795222   0.7020858167240333 1.0000   
         C         C         1.0       0.24084412731466992           0.9511216830841849 0.6845219990248175 1.0000   
         C         C         1.0       0.25863388396017967           0.9755806376663777 0.6701792629705736 1.0000   
         C         C         1.0       0.2949875709322597  0.9748999626428106  0.6697210996167864 1.0000   
         C         C         1.0       0.3129037180905412  0.951725428179624   0.686589585800391  1.0000   
         C         C         1.0       0.29407934231469696           0.9278465895311738 0.7021352559725058 1.0000   
         C         C         1.0       0.26516661387589957           0.8431226880434797 0.7117303579897364 1.0000   
         C         C         1.0       0.2746787232600928  0.8183695471739849  0.6918376011754758 1.0000   
         C         C         1.0       0.2557537001425844  0.8151824023653484  0.666221965734676  1.0000   
         C         C         1.0       0.2296273437988262  0.8374597937055326  0.6605135937984948 1.0000   
         C         C         1.0       0.22591451536907614           0.8669182195676071 0.6776073971919757 1.0000   
         C         C         1.0       0.24197480667538596           0.8685030505165283 0.7039890490312207 1.0000   
         H         H         1.0       0.02087177481429525           0.9249854002576567 0.7666809952317317 1.0000   
         H         H         1.0       0.11554851858553716           0.8714094887519869 0.7892082264437624 1.0000   
         H         H         1.0       0.08146108111217659           0.8259635268359417 0.8106226876917441 1.0000   
         H         H         1.0       0.9858689126978225  0.8780902386260243  0.7864052483507664 1.0000   
         H         H         1.0       0.13523160175032645           0.9189029991515985 0.8140867977938835 1.0000   
         H         H         1.0       0.1458347339246718  0.95329937831599    0.8539879683707594 1.0000   
         H         H         1.0       0.07444594391602767           0.02915488285629486          0.823978686432875  1.0000   
         H         H         1.0       0.0623303840560129  0.9951698145289826  0.7812018147150893 1.0000   
         H         H         1.0       0.12219764770703005           0.8718121766380559 0.7345097691116765 1.0000   
         H         H         1.0       0.17781268536038894           0.8616691673500493 0.7191309355592577 1.0000   
         H         H         1.0       0.2097575292054096  0.9633179046805201  0.7434848539049647 1.0000   
         H         H         1.0       0.14792883626269676           0.9717901747219246 0.7612845502361834 1.0000   
         H         H         1.0       0.24221292901177818           0.8573950396380855 0.8180354503086046 1.0000   
         H         H         1.0       0.22236814882542813           0.8572350983953506 0.7713585018302922 1.0000   
         H         H         1.0       0.2812323827411325  0.9519825183272703  0.7571546959009386 1.0000   
         H         H         1.0       0.30194821677595785           0.9481928505336241 0.8028701281160521 1.0000   
         H         H         1.0       0.2126736464006105  0.9516397166850702  0.6815289510014751 1.0000   
         H         H         1.0       0.2455584281292838  0.9953298442537891  0.6584822205754101 1.0000   
         H         H         1.0       0.33984626415827374           0.9486092085442036 0.6876985228300824 1.0000   
         H         H         1.0       0.30911966783484024           0.9089517025100706 0.7117703493031313 1.0000   
         H         H         1.0       0.2775800025386058  0.8471370335183416  0.7332992534145267 1.0000   
         H         H         1.0       0.2944514930616835  0.8005185019900195  0.6970146495628083 1.0000   
         H         H         1.0       0.21777000692367868           0.8387016343654597 0.6394163587160813 1.0000   
         H         H         1.0       0.20639341483526852           0.8862937122345532 0.6736246953959042 1.0000   
         C         C         1.0       0.2858237910186774  0.8837603232224587  0.4590335432018226 1.0000   
         C         C         1.0       0.27548307459340393           0.8539341334467841 0.46927609813121823          1.0000   
         C         C         1.0       0.25474493703679457           0.8539609628016753 0.49302151978659764          1.0000   
         C         C         1.0       0.23998588516319078           0.8830668035136522 0.505422295400017  1.0000   
         C         C         1.0       0.24534908693733998           0.9127946868239307 0.4897253972574305 1.0000   
         C         C         1.0       0.26995148579327466           0.9142862492369742 0.4678959404660827 1.0000   
         H         H         1.0       0.28808406959842225           0.8304787459786316 0.46497883508386156          1.0000   
         H         H         1.0       0.2517574885285552  0.8283286963874075  0.5032351328814059 1.0000   
         H         H         1.0       0.23216518655554766           0.9364423117478531 0.4958399024430527 1.0000   
         H         H         1.0       0.2728330784572702  0.9383274693516658  0.4564934759731495 1.0000   
         C         C         1.0       0.24685657227200108           0.9335364016680306 0.5544823840570577 1.0000   
         C         C         1.0       0.2168017660295606  0.9131225605753334  0.5526987498353052 1.0000   
         C         C         1.0       0.1898231564076707  0.9209977104568261  0.5712494777137068 1.0000   
         C         C         1.0       0.18923830177680173           0.9510379039105901 0.5864155911990464 1.0000   
         C         C         1.0       0.2165918669347497  0.9732989221072734  0.5843101710827958 1.0000   
         C         C         1.0       0.24600346418414176           0.9636864468615589 0.570332362451474  1.0000   
         C         C         1.0       0.21493588977968608           0.8799431081429667 0.5333410580791854 1.0000   
         C         C         1.0       0.22204227596553427           0.8501484501297614 0.5546688861209691 1.0000   
         C         C         1.0       0.19500746660550136           0.8361423667141835 0.5714391597489908 1.0000   
         C         C         1.0       0.20248303769543716           0.8102631916107862 0.5900849047505496 1.0000   
         C         C         1.0       0.23643605817619293           0.800564269039402  0.595643354049506  1.0000   
         C         C         1.0       0.26376219487840213           0.813949445002547  0.5798314088283407 1.0000   
         C         C         1.0       0.25627185211971    0.8390763279546877  0.5601409339487635 1.0000   
         C         C         1.0       0.16272892910577175           0.9099974573812745 0.5067957119875911 1.0000   
         C         C         1.0       0.1309439104508331  0.911648783063167   0.4935063588829721 1.0000   
         C         C         1.0       0.11357335154900854           0.8814225978077612 0.48549824517777923          1.0000   
         C         C         1.0       0.12846714975398385           0.8511995075043313 0.4947712818574135 1.0000   
         C         C         1.0       0.16059126036534463           0.8502794367262455 0.5097436470909306 1.0000   
         C         C         1.0       0.17719281573240622           0.8798792901920213 0.5170924359443357 1.0000   
         C         C         1.0       0.07916449193079017           0.8848467349130168 0.4656056547853535 1.0000   
         C         C         1.0       0.016194117630735638          0.9053664349087784 0.5411299929882024 1.0000   
         C         C         1.0       0.033138041368118376          0.9316374242975108 0.5280418077061947 1.0000   
         C         C         1.0       0.049573617319006995          0.9258426767717267 0.5026922089572713 1.0000   
         C         C         1.0       0.052695307308251275          0.8938206927883592 0.49176134089303314          1.0000   
         C         C         1.0       0.03508898281228978           0.8670554553773954 0.5056600104537242 1.0000   
         C         C         1.0       0.016780512928374236          0.8735076857214565 0.5294426464236802 1.0000   
         C         C         1.0       0.06788061665976346           0.8524358640963481 0.4450965121282197 1.0000   
         C         C         1.0       0.09138053886273792           0.8298521078596756 0.43277080044265703          1.0000   
         C         C         1.0       0.08208059583605003           0.8060460991465096 0.41264511783265045          1.0000   
         C         C         1.0       0.04777911491663318           0.798087480876905  0.40999585267805216          1.0000   
         C         C         1.0       0.022854555811926414          0.8187190793488847 0.4211752990225107 1.0000   
         C         C         1.0       0.03365992124392569           0.844157361405559  0.44067988357195226          1.0000   
         C         C         1.0       0.0629509279481463  0.9387113423059091  0.43719976686404516          1.0000   
         C         C         1.0       0.07124855565044037           0.9650310975065267 0.41825659987177627          1.0000   
         C         C         1.0       0.10348258089731255           0.9665757954750096 0.4055789845846246 1.0000   
         C         C         1.0       0.12497189909461463           0.9395257595645112 0.40963580796226384          1.0000   
         C         C         1.0       0.11617906321868257           0.9122930596707987 0.42688320315674283          1.0000   
         C         C         1.0       0.08512256353135265           0.9128532695450262 0.44259489819024633          1.0000   
         H         H         1.0       0.27073403917845634           0.9264079558244159 0.5428417749385344 1.0000   
         H         H         1.0       0.16638876768458224           0.904160087226958  0.5726688141720077 1.0000   
         H         H         1.0       0.16626241280681914           0.9578514900563063 0.6002433128688752 1.0000   
         H         H         1.0       0.2684739400889355  0.979087044677826   0.5686357846638326 1.0000   
         H         H         1.0       0.1705847116368122  0.8471595231289978  0.5706630053426562 1.0000   
         H         H         1.0       0.1826267138551792  0.801841177371775   0.6049443626858276 1.0000   
         H         H         1.0       0.2912565870637627  0.8048981502886278  0.5829451857185602 1.0000   
         H         H         1.0       0.2772834532334634  0.8507101111263843  0.5514606167043404 1.0000   
         H         H         1.0       0.1716958278141357  0.9355208998996961  0.5128739705655923 1.0000   
         H         H         1.0       0.12408323359651194           0.9382988631871267 0.48833377645724557          1.0000   
         H         H         1.0       0.117972441941437   0.8258789767953737  0.4896393049960082 1.0000   
         H         H         1.0       0.16969452187875897           0.8248731630184759 0.5155362478398733 1.0000   
         H         H         1.0       0.03091817269385255           0.9584813458870881 0.53385445573333   1.0000   
         H         H         1.0       0.0635257181935298  0.9472617615330765  0.49333050953600716          1.0000   
         H         H         1.0       0.03561219775307478           0.8404582828644842 0.49692740166289007          1.0000   
         H         H         1.0       0.005624395428671656          0.8517922716735963 0.5393419143714109 1.0000   
         H         H         1.0       0.11975509243940816           0.8305104587195248 0.438433682575905  1.0000   
         H         H         1.0       0.09966908670479721           0.78834538873799   0.4042689090589046 1.0000   
         H         H         1.0       0.9976062314922299  0.8111581448702951  0.4148122785283887 1.0000   
         H         H         1.0       0.013751739111506511          0.8596165433626848 0.4529817109576505 1.0000   
         H         H         1.0       0.03830926798172629           0.9424080886407649 0.4487877672358083 1.0000   
         H         H         1.0       0.05342171572507842           0.9849232935300194 0.4153104451261894 1.0000   
         H         H         1.0       0.15044621180872395           0.9415596606189149 0.3996584668812569 1.0000   
         H         H         1.0       0.1333677994769558  0.891139200847469   0.4287010469463522 1.0000   
         C         C         1.0       0.016491310050213315          0.1843577900132158 0.6720815462159426 1.0000   
         C         C         1.0       0.018596547479904357          0.1922544817414435 0.7012978368134526 1.0000   
         C         C         1.0       0.9999790136545055  0.17557829973500355           0.7208564281502593 1.0000   
         C         C         1.0       0.9751172811600674  0.1507420752777854  0.712752980910025  1.0000   
         C         C         1.0       0.9708633667263654  0.14475389521180912           0.6831840184700855 1.0000   
         C         C         1.0       0.9933554780457247  0.15900407987817186           0.6638264106839438 1.0000   
         H         H         1.0       0.036431277042322296          0.21311180616955314          0.7094562999361937 1.0000   
         H         H         1.0       0.0015838424447314203         0.1820203539796116 0.7440703758394849 1.0000   
         H         H         1.0       0.9499067554515709  0.1269383048916152  0.676870271930449  1.0000   
         H         H         1.0       0.9904907847254252  0.15390098934781285           0.6400443567689835 1.0000   
         C         C         1.0       0.9255263228552582  0.18867500209893115           0.7583567391546929 1.0000   
         C         C         1.0       0.9211543843367521  0.16275385307163476           0.7372214614196062 1.0000   
         C         C         1.0       0.8918807667795868  0.16672823123671943           0.7179019993106663 1.0000   
         C         C         1.0       0.8668635462000107  0.1931283503458348  0.7221077421684767 1.0000   
         C         C         1.0       0.8730950764924444  0.21639641399159718           0.7449561148306725 1.0000   
         C         C         1.0       0.9021659493290971  0.21380314318481902           0.7616053549958031 1.0000   
         C         C         1.0       0.947993650506422   0.1331304429200076  0.7346311557494439 1.0000   
         C         C         1.0       0.9621341334665255  0.12162143330365918           0.7656840541046837 1.0000   
         C         C         1.0       0.9390484798316209  0.11658365645467028           0.7884499360110773 1.0000   
         C         C         1.0       0.9492430631715802  0.09848930325056182           0.8133379501396465 1.0000   
         C         C         1.0       0.9828785951954797  0.08637523356305299           0.8150634855048846 1.0000   
         C         C         1.0       0.0073504767568064455         0.09453106677560842          0.794355162083459  1.0000   
         C         C         1.0       0.9966881962098052  0.11366755218720738           0.7702895112983507 1.0000   
         C         C         1.0       0.8956052111245033  0.08865830105554862           0.7281919608797414 1.0000   
         C         C         1.0       0.8853345343510327  0.0556863645135508  0.721198187520913  1.0000   
         C         C         1.0       0.9080547306240838  0.03134565141166834           0.7105356680481143 1.0000   
         C         C         1.0       0.9436227074202403  0.04041522155235189           0.7078831836968805 1.0000   
         C         C         1.0       0.9548851346238049  0.07211501135126652           0.716258057450781  1.0000   
         C         C         1.0       0.9310942185840172  0.09748968668787783           0.725173797434444  1.0000   
         C         C         1.0       0.8946096229533338  0.9950694975132024  0.7000390480440155 1.0000   
         C         C         1.0       0.8935638087376824  0.9366538558330898  0.7805247992927605 1.0000   
         C         C         1.0       0.8623873698795854  0.947507557870644   0.7677649931293793 1.0000   
         C         C         1.0       0.8631965785267676  0.9675225934125706  0.743866285593681  1.0000   
         C         C         1.0       0.8930563169167387  0.9769626138380005  0.7299832461467506 1.0000   
         C         C         1.0       0.9241486099239931  0.96716347125711    0.7435311233155351 1.0000   
         C         C         1.0       0.923298025750848   0.9467586343025834  0.767890282492807  1.0000   
         C         C         1.0       0.9216534044206567  0.9824697272145192  0.6744675403135798 1.0000   
         C         C         1.0       0.9303783422389136  0.0018774054867607415        0.6504070714242154 1.0000   
         C         C         1.0       0.959830793869399   0.9953093486011945  0.6346902271922039 1.0000   
         C         C         1.0       0.9797811593934652  0.9673342450120839  0.6421569705559566 1.0000   
         C         C         1.0       0.968999793304869   0.9450859488186246  0.6636896321047339 1.0000   
         C         C         1.0       0.9407925427522607  0.9531720496296557  0.6797577401523265 1.0000   
         C         C         1.0       0.8478921076843774  0.9562383754348374  0.6730354728093078 1.0000   
         C         C         1.0       0.8176873843666643  0.9494012769321853  0.6587590474664131 1.0000   
         C         C         1.0       0.7933428617402694  0.9762732320698587  0.6548539682646445 1.0000   
         C         C         1.0       0.8049067380314221  0.008551406247398363         0.6620423718275602 1.0000   
         C         C         1.0       0.8381052353224818  0.015423687587259982         0.6721637289228123 1.0000   
         C         C         1.0       0.8591887138291959  0.9896679048641611  0.6812888018722815 1.0000   
         H         H         1.0       0.9466759182835575  0.18989550171493397           0.7726816980159772 1.0000   
         H         H         1.0       0.8865796309219088  0.14904593876239836           0.6994910280978577 1.0000   
         H         H         1.0       0.843420764802005   0.18949268716504467           0.7066003926610575 1.0000   
         H         H         1.0       0.9066532340697511  0.2342650009770029  0.7773373513275402 1.0000   
         H         H         1.0       0.9116584787317494  0.11795259141084902           0.7833964452929777 1.0000   
         H         H         1.0       0.9288511632804947  0.08799671574002987           0.8268209727069362 1.0000   
         H         H         1.0       0.0330173487129497  0.08342418507350476           0.7942139310136425 1.0000   
         H         H         1.0       0.013016886383393933          0.11887076604144443          0.7523799988621559 1.0000   
         H         H         1.0       0.8775416289596836  0.10625566635053887           0.7377179891351492 1.0000   
         H         H         1.0       0.8573169742463235  0.04958837013563455           0.7228277903536814 1.0000   
         H         H         1.0       0.963484820353688   0.022691820005937613         0.7023373152904375 1.0000   
         H         H         1.0       0.983412815759054   0.07636873812569767           0.7178481317297865 1.0000   
         H         H         1.0       0.8372961947348632  0.9435837682578003  0.7768373804512878 1.0000   
         H         H         1.0       0.8381865303622255  0.9753958878379695  0.7354625511584891 1.0000   
         H         H         1.0       0.951002542223419   0.9748739389607353  0.7369612138383533 1.0000   
         H         H         1.0       0.9471259100367654  0.9365548522978892  0.7767062796658921 1.0000   
         H         H         1.0       0.91450665771185    0.024227350032105965         0.6458736942294515 1.0000   
         H         H         1.0       0.9703356000670302  0.013904273726416116         0.6218280171892413 1.0000   
         H         H         1.0       0.9828786233451383  0.921161735149112   0.6674530716122331 1.0000   
         H         H         1.0       0.9326007531132349  0.9358883451522713  0.6963306256562471 1.0000   
         H         H         1.0       0.8629212628370719  0.9329623886268962  0.677446194876124  1.0000   
         H         H         1.0       0.8131608110466703  0.9235050229965048  0.6498883733251594 1.0000   
         H         H         1.0       0.7891371877548943  0.02993783345472245           0.6556506106037455 1.0000   
         H         H         1.0       0.8438471492404341  0.04324567280614766           0.6747280525021719 1.0000   
         C         C         1.0       0.808302160200656   0.9886415483073407  0.42731769721478335          1.0000   
         C         C         1.0       0.7874009042052731  0.001929997726144661         0.44813668000609197          1.0000   
         C         C         1.0       0.7984755245860429  0.999822034274039   0.4765529036679685 1.0000   
         C         C         1.0       0.8309788270311095  0.9842311310241944  0.484379071714651  1.0000   
         C         C         1.0       0.8492903028087968  0.968434981347507   0.46402251475916917          1.0000   
         C         C         1.0       0.8385891269489065  0.9704637742670207  0.43546790579399036          1.0000   
         H         H         1.0       0.7647917209622339  0.01587535467571244           0.4437141368097869 1.0000   
         H         H         1.0       0.7853196991221159  0.015517519336607943         0.491958861933614  1.0000   
         H         H         1.0       0.8725392972756416  0.9538415014269553  0.47041233353055933          1.0000   
         H         H         1.0       0.8527851796766052  0.9542213695332289  0.42008591356308805          1.0000   
         C         C         1.0       0.8783849924846797  0.932274933699021   0.5224156127748147 1.0000   
         C         C         1.0       0.8797438161148454  0.9668902956966542  0.5270838886580771 1.0000   
         C         C         1.0       0.904584090328664   0.9781877546635768  0.5471398114486672 1.0000   
         C         C         1.0       0.9284998168370868  0.9568861883961832  0.5597893838005994 1.0000   
         C         C         1.0       0.9303272659531282  0.923571074312777   0.5520919289452386 1.0000   
         C         C         1.0       0.9037713085077645  0.9100480179097001  0.5345989980385651 1.0000   
         C         C         1.0       0.8488421959368313  0.9927129670131806  0.5158161807248094 1.0000   
         C         C         1.0       0.8221564554681555  0.9920146608617487  0.5419172074219669 1.0000   
         C         C         1.0       0.8294101794805158  0.009677411855808726         0.5677009628211421 1.0000   
         C         C         1.0       0.808566248487217   0.005610038888587798         0.5908465739602837 1.0000   
         C         C         1.0       0.7790544840261818  0.9844922085013206  0.5883485946006942 1.0000   
         C         C         1.0       0.7723172473824482  0.965576545150274   0.5647480264387158 1.0000   
         C         C         1.0       0.7944665070725037  0.967630058162388   0.5418993306587154 1.0000   
         C         C         1.0       0.8956448320705761  0.03520017085640603           0.4998449016761251 1.0000   
         C         C         1.0       0.905918316693075   0.0648017497264104  0.48850143187282674          1.0000   
         C         C         1.0       0.8816925710536444  0.09258064897712992           0.48460377481753164          1.0000   
         C         C         1.0       0.84966212591228    0.08856007222230389           0.49718314087354876          1.0000   
         C         C         1.0       0.8400530506517467  0.05780940777073318           0.5091873524247789 1.0000   
         C         C         1.0       0.8617645416144143  0.029377091210420758         0.5088923289670141 1.0000   
         C         C         1.0       0.8949312869180033  0.1242995909966329  0.46828878003591146          1.0000   
         C         C         1.0       0.9255213904971038  0.16920115767955346           0.551388359413897  1.0000   
         C         C         1.0       0.9502783084252189  0.1501760039116     0.5370081576040968 1.0000   
         C         C         1.0       0.9423693153364193  0.13976415949550824           0.5090650629988916 1.0000   
         C         C         1.0       0.9090970960750524  0.14461618121250727           0.49636805419781627          1.0000   
         C         C         1.0       0.8869442484324928  0.16508734220372245           0.5114869782567584 1.0000   
         C         C         1.0       0.8933865880887805  0.17538041790523237           0.5386669571445294 1.0000   
         C         C         1.0       0.8683613980024399  0.14733852406226267           0.4513839678975522 1.0000   
         C         C         1.0       0.8368991757205542  0.13517659995046505           0.4392748196074607 1.0000   
         C         C         1.0       0.8136991023012303  0.15436407911928773           0.42544368094956375          1.0000   
         C         C         1.0       0.822049699864575   0.18792049898767904           0.4197904040728228 1.0000   
         C         C         1.0       0.8543050824310253  0.20138934033922565           0.42946579735544693          1.0000   
         C         C         1.0       0.8777033019622028  0.18098703983026532           0.44497810700035845          1.0000   
         C         C         1.0       0.9507118298510436  0.12635950855876632           0.44004514517657267          1.0000   
         C         C         1.0       0.9727263718764013  0.1131011361383838  0.41958106548575724          1.0000   
         C         C         1.0       0.9618748915478562  0.08693926876912372           0.4004705111784855 1.0000   
         C         C         1.0       0.9262193911072168  0.08120329625033351           0.39874547539292915          1.0000   
         C         C         1.0       0.9046876411649151  0.09217269238418857           0.41996840193218926          1.0000   
         C         C         1.0       0.917566107356473   0.11372757526904631           0.4422890948638641 1.0000   
         H         H         1.0       0.8585924421939944  0.9203276968455223  0.5096392873775972 1.0000   
         H         H         1.0       0.906289353005315   0.005477247076411507         0.5533698960681257 1.0000   
         H         H         1.0       0.9491491627066071  0.9675304262607685  0.5728635731861307 1.0000   
         H         H         1.0       0.9035293192241861  0.8821597456581203  0.5302099182958233 1.0000   
         H         H         1.0       0.8497744281554991  0.02726386484672405           0.5679628066354963 1.0000   
         H         H         1.0       0.8136231149735046  0.020048674952890977         0.6101517296927419 1.0000   
         H         H         1.0       0.752449584307389   0.947053979676471   0.5648811863474554 1.0000   
         H         H         1.0       0.7909613850394903  0.9538663217230711  0.5223091374009726 1.0000   
         H         H         1.0       0.9125761054731161  0.012143090921726607         0.4942107941117717 1.0000   
         H         H         1.0       0.932748980594316   0.06518793116090671           0.4798419297382231 1.0000   
         H         H         1.0       0.8333067093052365  0.11022452238432456           0.4970328814824422 1.0000   
         H         H         1.0       0.814852418780702   0.0583137619560361  0.5211027757771899 1.0000   
         H         H         1.0       0.9745541404926225  0.14306449245695704           0.5465495361994814 1.0000   
         H         H         1.0       0.9608718385957921  0.12045634035876521           0.502745620401427  1.0000   
         H         H         1.0       0.8614622102984195  0.1707538129038679  0.5031351264779262 1.0000   
         H         H         1.0       0.8729423057782527  0.1869695725284107  0.5505449924281879 1.0000   
         H         H         1.0       0.8305709051755661  0.1093067945384889  0.4444156161484534 1.0000   
         H         H         1.0       0.7878594605441634  0.1453351761397308  0.4192899886456836 1.0000   
         H         H         1.0       0.8624362990805667  0.22752994076271188           0.4259184987948905 1.0000   
         H         H         1.0       0.9012233613969745  0.1942437484394306  0.4525985024833126 1.0000   
         H         H         1.0       0.961792809815875   0.14586234506338708           0.4551660707961946 1.0000   
         H         H         1.0       0.0003333918793713142         0.11929703055289376          0.4191018479318523 1.0000   
         H         H         1.0       0.9159711557612371  0.060192229085964   0.3836409951334987 1.0000   
         H         H         1.0       0.8769272381765277  0.08476875112880422           0.4213674304569872 1.0000   
         C         C         1.0       0.31138163587251694           0.05018752114787262          0.6802894708380819 1.0000   
         C         C         1.0       0.28569468741986326           0.0611622439659254 0.6969502811542397 1.0000   
         C         C         1.0       0.2927060194879024  0.07556724384123191           0.7231086577629667 1.0000   
         C         C         1.0       0.32609302705212556           0.0776867494960853 0.7339682367000598 1.0000   
         C         C         1.0       0.3527838059034224  0.0656347623644229  0.7166073827941148 1.0000   
         C         C         1.0       0.3458263271416895  0.051954613514751065         0.690588646754249  1.0000   
         H         H         1.0       0.2564970467321838  0.061445076819595545         0.6893036917836158 1.0000   
         H         H         1.0       0.27235138810388393           0.09046826394104451          0.7343743303094697 1.0000   
         H         H         1.0       0.37793934875754426           0.06428435356165907          0.7266381005866255 1.0000   
         H         H         1.0       0.3692145711633272  0.04555566364819841           0.6792401871107127 1.0000   
         C         C         1.0       0.3534223051499542  0.03720523924242847           0.7834523557617314 1.0000   
         C         C         1.0       0.3613917116989819  0.07125548947578716           0.7818222548259933 1.0000   
         C         C         1.0       0.38719753368377846           0.08550859018267253          0.7993061317400413 1.0000   
         C         C         1.0       0.4097792905850853  0.06442122554861651           0.8137149244202616 1.0000   
         C         C         1.0       0.40209991222336816           0.028776066571349016         0.8143308810658481 1.0000   
         C         C         1.0       0.37334894927506646           0.016612544259307693         0.8005526566296443 1.0000   
         C         C         1.0       0.33411001330109247           0.09601484908290711          0.7655268850518013 1.0000   
         C         C         1.0       0.3046733868138271  0.09436561870952544           0.7897441981014256 1.0000   
         C         C         1.0       0.310302437689705   0.11558117162922651           0.8140536802339607 1.0000   
         C         C         1.0       0.28542604017763534           0.11814810288969008          0.8344262299350104 1.0000   
         C         C         1.0       0.25370339361389066           0.10235704404699941          0.8303100371072348 1.0000   
         C         C         1.0       0.24955688741769652           0.07941257880310783          0.8080439627126007 1.0000   
         C         C         1.0       0.27571693131866876           0.07336386368281177          0.7889665163498102 1.0000   
         C         C         1.0       0.37303476508641176           0.14549636371460462          0.7457577766272617 1.0000   
         C         C         1.0       0.37645994972867636           0.17664126739755237          0.7314757395300312 1.0000   
         C         C         1.0       0.34742695476522656           0.1972346401428972 0.7270902794692801 1.0000   
         C         C         1.0       0.3168844696132837  0.18784548067982804           0.7394338879772034 1.0000   
         C         C         1.0       0.3124749370159216  0.15634423702148198           0.7522352568446455 1.0000   
         C         C         1.0       0.34046314340403044           0.13354088351521679          0.755864124305755  1.0000   
         C         C         1.0       0.3518122086593405  0.23315749630105845           0.7112661607986864 1.0000   
         C         C         1.0       0.36521811092875056           0.3122845147203547 0.7776142873868785 1.0000   
         C         C         1.0       0.394068506300504   0.29986979544269254           0.7628689263488575 1.0000   
         C         C         1.0       0.39031641344567874           0.27063203913621986          0.7465408462719466 1.0000   
         C         C         1.0       0.358069296947332   0.2573185565162155  0.7391818398672222 1.0000   
         C         C         1.0       0.3301880445344846  0.2705524038176809  0.7546929404030115 1.0000   
         C         C         1.0       0.3340061131347407  0.2971836907473569  0.7730705115292853 1.0000   
         C         C         1.0       0.31650073602767137           0.24131274006851633          0.6925792453359719 1.0000   
         C         C         1.0       0.297685197503692   0.21770325096372167           0.6766299295979432 1.0000   
         C         C         1.0       0.2702430997937042  0.22603818120985572           0.6593888449921153 1.0000   
         C         C         1.0       0.25712361796672384           0.2582196858207707 0.6601776854768201 1.0000   
         C         C         1.0       0.2742685321570481  0.2827839100957853  0.6769166294287358 1.0000   
         C         C         1.0       0.3042409870666674  0.27521482995435737           0.6924944712157919 1.0000   
         C         C         1.0       0.38997932349999326           0.26707564003241724          0.676617324329579  1.0000   
         C         C         1.0       0.41023843409390903           0.2714801569056362 0.6525352669209846 1.0000   
         C         C         1.0       0.41763619710724553           0.24345437107982257          0.6352577395199315 1.0000   
         C         C         1.0       0.4052540002894474  0.2115952505859827  0.642664855146597  1.0000   
         C         C         1.0       0.3866327182912288  0.20786356047370572           0.6666735490790224 1.0000   
         C         C         1.0       0.37838877795544007           0.23520522398397395          0.685130711487531  1.0000   
         H         H         1.0       0.3301400086672033  0.025615108486668706         0.7735559829860156 1.0000   
         H         H         1.0       0.3940745920434582  0.11311397264311897           0.7991973443317354 1.0000   
         H         H         1.0       0.4309754905466627  0.07422576843304902           0.8256409236627116 1.0000   
         H         H         1.0       0.3672553188562834  0.988347178169018   0.7998361893021703 1.0000   
         H         H         1.0       0.3332783805946396  0.12895980664892653           0.8173026257001264 1.0000   
         H         H         1.0       0.29320647426656643           0.13165114994044472          0.8538809105753639 1.0000   
         H         H         1.0       0.22612779553195303           0.06306663609028806          0.8061218728812486 1.0000   
         H         H         1.0       0.27050922972439084           0.055273392676793646         0.7717774738398595 1.0000   
         H         H         1.0       0.3966941276558724  0.13073814987125906           0.749279373381364  1.0000   
         H         H         1.0       0.4026422960421193  0.1852411753267746  0.7240793342533972 1.0000   
         H         H         1.0       0.2941713868963303  0.2052175476036735  0.7392928195884153 1.0000   
         H         H         1.0       0.2876216113066674  0.1486144206868297  0.7570642671155364 1.0000   
         H         H         1.0       0.41920948959917614           0.31506701727209324          0.761156479841086  1.0000   
         H         H         1.0       0.4147421377873865  0.26193932494527883           0.7362778471299621 1.0000   
         H         H         1.0       0.3037973455931168  0.26162441731594754           0.7518196519526753 1.0000   
         H         H         1.0       0.3087419490874951  0.30489281055024514           0.7839326754868885 1.0000   
         H         H         1.0       0.3053551559044904  0.19089497021722035           0.677270301902078  1.0000   
         H         H         1.0       0.2576986358723761  0.20625092750768073           0.6465597953569332 1.0000   
         H         H         1.0       0.2657008728772973  0.30862086358059215           0.6783553040055598 1.0000   
         H         H         1.0       0.3173622509909156  0.2938758229481366  0.7035376815864549 1.0000   
         H         H         1.0       0.38285283623109834           0.28998533029322093          0.6871323937398434 1.0000   
         H         H         1.0       0.4171269977607876  0.29835212920197984           0.6483583937669756 1.0000   
         H         H         1.0       0.40956689781096484           0.1899696065736301 0.6292528410412296 1.0000   
         H         H         1.0       0.3733065592294643  0.18393736334190033           0.6698030082599836 1.0000   
         C         C         1.0       0.30281327212202236           0.266643133913429  0.4175660162827044 1.0000   
         C         C         1.0       0.32650388920277423           0.24435865128721193          0.42964067317517063          1.0000   
         C         C         1.0       0.32515444111746405           0.23616259378459617          0.4579853978901644 1.0000   
         C         C         1.0       0.29780899675168754           0.24739305142200096          0.4742216529654337 1.0000   
         C         C         1.0       0.2721594912832358  0.26804372884062727           0.4616614841673572 1.0000   
         C         C         1.0       0.275072858963917   0.27692481198289853           0.43313006625454953          1.0000   
         H         H         1.0       0.3482897207845509  0.2358097514936063  0.4192385401701932 1.0000   
         H         H         1.0       0.3440255326696868  0.21976771278553853           0.4681279946584501 1.0000   
         H         H         1.0       0.24976073441482272           0.27610232839782234          0.4734450290386549 1.0000   
         H         H         1.0       0.25951699682017354           0.2981431172480824 0.42408399714251954          1.0000   
         C         C         1.0       0.2643222121384509  0.29162683534974    0.5253253571343609 1.0000   
         C         C         1.0       0.26568930073997354           0.2564522633328745 0.5259558729171447 1.0000   
         C         C         1.0       0.24251709740242036           0.2403140788212889 0.5437838314107122 1.0000   
         C         C         1.0       0.2165557470422625  0.2585752669129026  0.5572265522659794 1.0000   
         C         C         1.0       0.21599938933261478           0.29357002048136344          0.5570040161660677 1.0000   
         C         C         1.0       0.24018658106253268           0.310748601985331  0.5413584045612059 1.0000   
         C         C         1.0       0.2948204038552445  0.23722162131932215           0.5083561671353669 1.0000   
         C         C         1.0       0.32922988549921955           0.2458943849520194 0.5281643697441287 1.0000   
         C         C         1.0       0.3321804327559134  0.23290738786257187           0.5564992780518839 1.0000   
         C         C         1.0       0.35949371331718427           0.2403398167519747 0.5754194998102028 1.0000   
         C         C         1.0       0.3844024536522689  0.26410024206475813           0.5664901243882012 1.0000   
         C         C         1.0       0.38365520737695286           0.2742051453788924 0.5384539983205822 1.0000   
         C         C         1.0       0.35492132623833683           0.2681769931634529 0.5208256769718275 1.0000   
         C         C         1.0       0.25568056108355003           0.18541941032206088          0.49206949765894065          1.0000   
         C         C         1.0       0.25053997504346526           0.1502601393999447 0.487420349327124  1.0000   
         C         C         1.0       0.27770684170258025           0.12717108166982527          0.491275910173004  1.0000   
         C         C         1.0       0.30735568679642683           0.1391876499913438 0.5056148723710565 1.0000   
         C         C         1.0       0.3122709492974469  0.17350893849462926           0.5102125565494171 1.0000   
         C         C         1.0       0.2861211799342061  0.19624206257214813           0.5063016101893136 1.0000   
         C         C         1.0       0.2711471863500877  0.0884472474986768  0.4815613772090162 1.0000   
         C         C         1.0       0.22036672172704477           0.04936199737034608          0.5602905206873566 1.0000   
         C         C         1.0       0.19968213992095993           0.06251789469297786          0.5384592542900339 1.0000   
         C         C         1.0       0.21511127812683306           0.0760807719899111 0.5137555996995273 1.0000   
         C         C         1.0       0.25063158882688813           0.07377935948943046          0.5090760155551529 1.0000   
         C         C         1.0       0.2717224009406273  0.06127970185431431           0.5329258029948734 1.0000   
         C         C         1.0       0.2573933680922354  0.05435449971390627           0.558965725595904  1.0000   
         C         C         1.0       0.3037766202925263  0.06321444308232138           0.47573139705719447          1.0000   
         C         C         1.0       0.33722402100103654           0.0750771563323543 0.47283178506238893          1.0000   
         C         C         1.0       0.36333669481071895           0.054302615300958694         0.4623215727936638 1.0000   
         C         C         1.0       0.3582388995544018  0.020316547234120463         0.46104673928811474          1.0000   
         C         C         1.0       0.3260606990630771  0.006842371484142128         0.4664705303327187 1.0000   
         C         C         1.0       0.29784851144932345           0.02790488370390798          0.47278337904357426          1.0000   
         C         C         1.0       0.21802642455819085           0.07852480378060518          0.44383762345769096          1.0000   
         C         C         1.0       0.20058005244246957           0.09274366092700356          0.4199835365230963 1.0000   
         C         C         1.0       0.21797643022435384           0.11379117081832717          0.40031805414127475          1.0000   
         C         C         1.0       0.25272660759639975           0.12035163041529033          0.4050529958874895 1.0000   
         C         C         1.0       0.2712164986514879  0.10726523131485305           0.42884655063142957          1.0000   
         C         C         1.0       0.25396370500927296           0.08825886971960721          0.44934372114677745          1.0000   
         H         H         1.0       0.2827360071610768  0.3045508787315774  0.5142318037916405 1.0000   
         H         H         1.0       0.24069174459551385           0.21417713570128757          0.5474672249208019 1.0000   
         H         H         1.0       0.19820287762350158           0.24409308720523543          0.5699669065412551 1.0000   
         H         H         1.0       0.24169787856376862           0.33835938961277884          0.5423831370118987 1.0000   
         H         H         1.0       0.3124857864880654  0.21770035916788583           0.5641409001301148 1.0000   
         H         H         1.0       0.3614542092493503  0.2279867472955132  0.5957363463858678 1.0000   
         H         H         1.0       0.40448314876678104           0.2914976019647306 0.534368760200336  1.0000   
         H         H         1.0       0.358077733857356   0.28172668598261874           0.5006835082715169 1.0000   
         H         H         1.0       0.2357373783018798  0.20319103012797607           0.4840897022912608 1.0000   
         H         H         1.0       0.22673645836497164           0.14208470793628575          0.47761912680557955          1.0000   
         H         H         1.0       0.32601674107640843           0.12220335352518918          0.5147632624820313 1.0000   
         H         H         1.0       0.3366717625552958  0.17991358676218666           0.5228700063882828 1.0000   
         H         H         1.0       0.17086990024563833           0.06430069695667463          0.5381483966746763 1.0000   
         H         H         1.0       0.19922441086113293           0.0913798937868399 0.4992479061403607 1.0000   
         H         H         1.0       0.29996129907147906           0.06506453467361006          0.5320532637734627 1.0000   
         H         H         1.0       0.2744925967180066  0.05241560607917673           0.5773243541473234 1.0000   
         H         H         1.0       0.34240511381333455           0.10115901013997808          0.4721105546463459 1.0000   
         H         H         1.0       0.38834186598907333           0.06523063972814214          0.45325522673981916          1.0000   
         H         H         1.0       0.3179937895237566  0.9819173231459495  0.4617505333265462 1.0000   
         H         H         1.0       0.2733260485567337  0.01642608027121706           0.4794993012424329 1.0000   
         H         H         1.0       0.20094350818606468           0.06476669709209926          0.45660895252745043          1.0000   
         H         H         1.0       0.17388393508989436           0.0879217910761982 0.4193041033256536 1.0000   
         H         H         1.0       0.26602834908828416           0.13773036973169947          0.3905934604956878 1.0000   
         H         H         1.0       0.2990793280067922  0.11179997824523975           0.4326275991005209 1.0000   
         C         C         1.0       0.9463324401617101  0.3713415751966012  0.23174791393921365          1.0000   
         C         C         1.0       0.9251821045231423  0.3566189860070005  0.2100026580977281 1.0000   
         C         C         1.0       0.9318214573802102  0.3234246092853128  0.2034024650636047 1.0000   
         C         C         1.0       0.9602920879677623  0.30423772461217347           0.2125781546417256 1.0000   
         C         C         1.0       0.9810331641554235  0.32231735392357125           0.23323896610097444          1.0000   
         C         C         1.0       0.9743948080025854  0.3541131122311094  0.24332487824749788          1.0000   
         H         H         1.0       0.9044678760304831  0.37073713533473523           0.1983878851415254 1.0000   
         H         H         1.0       0.9145272108554068  0.3115604454567394  0.1881546717074086 1.0000   
         H         H         1.0       0.0032601416276383244         0.31149927730418353          0.24502048280260746          1.0000   
         H         H         1.0       0.9905599238481779  0.36245928501384406           0.2613867954702173 1.0000   
         C         C         1.0       0.02686579208138551           0.2838663795653175 0.18031511932906627          1.0000   
         C         C         1.0       0.009235955939378426          0.2599473758097117 0.19624210170944686          1.0000   
         C         C         1.0       0.02283135389931057           0.22889038207943757          0.19775487631840175          1.0000   
         C         C         1.0       0.0558873212436255  0.22145052821269634           0.18919399555418875          1.0000   
         C         C         1.0       0.0761667209746657  0.24544442209929782           0.17548902456649149          1.0000   
         C         C         1.0       0.06039475049717269           0.27698764687257715          0.16984492784383398          1.0000   
         C         C         1.0       0.9697861012560578  0.26516532362158063           0.20409890461405958          1.0000   
         C         C         1.0       0.9503676775239664  0.24891142094894467           0.176290501279061  1.0000   
         C         C         1.0       0.9402948400431781  0.21440104983204858           0.17464168512851255          1.0000   
         C         C         1.0       0.922871374076003   0.20042844318814443           0.15034347518855948          1.0000   
         C         C         1.0       0.9133404735213668  0.22128946518910453           0.12737777157572586          1.0000   
         C         C         1.0       0.9188763076059352  0.2567010196775087  0.13151344240611443          1.0000   
         C         C         1.0       0.9391005528738937  0.26912007287091505           0.15396958058830834          1.0000   
         C         C         1.0       0.9805124063297568  0.23713760711370924           0.25403594053094264          1.0000   
         C         C         1.0       0.9683436493917654  0.2176295705467245  0.275738248664477  1.0000   
         C         C         1.0       0.9329199131317216  0.20906595718865262           0.2794487922031824 1.0000   
         C         C         1.0       0.9088349834561771  0.2228854156067633  0.2603192198166326 1.0000   
         C         C         1.0       0.9205300803874676  0.24037137936654973           0.23701848346557167          1.0000   
         C         C         1.0       0.956302551968339   0.24609592064740357           0.23258494337405433          1.0000   
         C         C         1.0       0.922061800510789   0.1805845251563863  0.29983485304567403          1.0000   
         C         C         1.0       0.8935844977968412  0.10758642174350408           0.2297154470419536 1.0000   
         C         C         1.0       0.9282677006819888  0.11347570259404273           0.23857338695279787          1.0000   
         C         C         1.0       0.9364419812584954  0.133735384087124   0.2620172015269634 1.0000   
         C         C         1.0       0.9116411827320092  0.15003521118984706           0.2776101010749011 1.0000   
         C         C         1.0       0.8770706474238301  0.144319263116635   0.26913323242334497          1.0000   
         C         C         1.0       0.8674929332590654  0.1225973384575143  0.2466204904321181 1.0000   
         C         C         1.0       0.8873881830189831  0.18700403434750096           0.32007974930081023          1.0000   
         C         C         1.0       0.8719112925994054  0.2183250936851555  0.3220741227391864 1.0000   
         C         C         1.0       0.8437302495015883  0.22434989160274593           0.33816065693122405          1.0000   
         C         C         1.0       0.8281420111111162  0.19794607691670407           0.3516200684852759 1.0000   
         C         C         1.0       0.8442221139845857  0.1655655402360532  0.35240046722119645          1.0000   
         C         C         1.0       0.8727202301380325  0.16073584780116423           0.33588471177468454          1.0000   
         C         C         1.0       0.9737352440508896  0.14498921444561105           0.324885452392885  1.0000   
         C         C         1.0       0.002350921119981697          0.14239007460381223          0.34337116230141257          1.0000   
         C         C         1.0       0.008848596054579438          0.16880591446449802          0.3634572975040578 1.0000   
         C         C         1.0       0.9844120422969777  0.19577226624120664           0.3672689777187752 1.0000   
         C         C         1.0       0.9576129697086392  0.19657644442507663           0.34739143573774856          1.0000   
         C         C         1.0       0.9515796314967002  0.1734717386701088  0.3247881292579379 1.0000   
         H         H         1.0       0.010702543469458758          0.30563845620438435          0.1735198071015626 1.0000   
         H         H         1.0       0.008458236952676224          0.20819475343507599          0.2048162125520573 1.0000   
         H         H         1.0       0.06367038977396788           0.19553575503169332          0.1943597305459789 1.0000   
         H         H         1.0       0.07506872963977496           0.29705539603706904          0.15638453743295752          1.0000   
         H         H         1.0       0.9484279378118018  0.19747449998176053           0.19073174836003146          1.0000   
         H         H         1.0       0.9131608245557212  0.17518571827896334           0.15178395167413913          1.0000   
         H         H         1.0       0.9071514429418819  0.27443172729813736           0.11654897534821154          1.0000   
         H         H         1.0       0.9501307669584583  0.2942307796308838  0.15409861488363266          1.0000   
         H         H         1.0       0.007285799427610096          0.24632832224547696          0.2543859639876825 1.0000   
         H         H         1.0       0.987030820666077   0.20807283408183572           0.29109043380071786          1.0000   
         H         H         1.0       0.8813669971729331  0.21563956802922843           0.2607707513662623 1.0000   
         H         H         1.0       0.8994028597285433  0.24916886186292553           0.22197888931672122          1.0000   
         H         H         1.0       0.9499507818986337  0.10518427259145388           0.2250000877812484 1.0000   
         H         H         1.0       0.9659039981418865  0.13884611523802437           0.2674621218927683 1.0000   
         H         H         1.0       0.8554868195500692  0.15700886521215995           0.2783040386304086 1.0000   
         H         H         1.0       0.8397332057018165  0.1217903519724084  0.23869289083311016          1.0000   
         H         H         1.0       0.8835123300563686  0.23958580030556284           0.31034577762467797          1.0000   
         H         H         1.0       0.8342462968811435  0.2496364805231269  0.339601386829559  1.0000   
         H         H         1.0       0.835841210022191   0.14426086748218858           0.36572879976625683          1.0000   
         H         H         1.0       0.8876830628457473  0.1363097292708657  0.33647695133261   1.0000   
         H         H         1.0       0.9675417362153477  0.12256935515197717           0.3113711756925932 1.0000   
         H         H         1.0       0.014858495364150404          0.11848406251151739          0.3423036713258326 1.0000   
         H         H         1.0       0.9861036446462027  0.2128015675817257  0.38538363427725003          1.0000   
         H         H         1.0       0.9374132903686684  0.21569206656592024           0.35072468908214055          1.0000   
         C         C         1.0       0.8837248126537298  0.1265017803157897  0.9297835003346262 1.0000   
         C         C         1.0       0.917795659467394   0.13819266666049573           0.9308954068469215 1.0000   
         C         C         1.0       0.9287810789546829  0.16659072009087741           0.9153251661885939 1.0000   
         C         C         1.0       0.9060832462167162  0.18238505108440475           0.8961561750832319 1.0000   
         C         C         1.0       0.8710399444721703  0.1724477228273911  0.8978631469036648 1.0000   
         C         C         1.0       0.8606721889330916  0.1445619857341928  0.9126277496961533 1.0000   
         H         H         1.0       0.9376112940332556  0.1253861365262489  0.944303810352492  1.0000   
         H         H         1.0       0.9566711595911592  0.1717518840435276  0.9145346131038622 1.0000   
         H         H         1.0       0.8490285155090019  0.18551939425599615           0.8867533102697257 1.0000   
         H         H         1.0       0.8332318405247817  0.13843283701550502           0.911940400247504  1.0000   
         C         C         1.0       0.8763256592953372  0.1911394197638454  0.8328879957438505 1.0000   
         C         C         1.0       0.8900803712720354  0.21866991887156034           0.8494522899595655 1.0000   
         C         C         1.0       0.8766534770385757  0.25036422861633917           0.8428580920881329 1.0000   
         C         C         1.0       0.8477683039529065  0.25325311474600276           0.8231766336641293 1.0000   
         C         C         1.0       0.838186826159408   0.2265262258978068  0.8070762724877951 1.0000   
         C         C         1.0       0.8499297710070232  0.1935784195013036  0.8130912481016725 1.0000   
         C         C         1.0       0.9197497332691233  0.2098982885053922  0.873529346700155  1.0000   
         C         C         1.0       0.9519491416803696  0.19937004999923608           0.8538586722340064 1.0000   
         C         C         1.0       0.9648418902079561  0.22215051715139514           0.8323923015716737 1.0000   
         C         C         1.0       0.9949611930313489  0.21724008498592556           0.8180659215369765 1.0000   
         C         C         1.0       0.015391826365408257          0.18924085836000273          0.8248405987309708 1.0000   
         C         C         1.0       0.0016800170967903316         0.16400617122253164          0.8426087867250659 1.0000   
         C         C         1.0       0.9692225339904548  0.16831412373734428           0.8557737852236007 1.0000   
         C         C         1.0       0.908031699304986   0.25476154882703267           0.9123515511900541 1.0000   
         C         C         1.0       0.9169694086969772  0.26966199709088967           0.9382481214288868 1.0000   
         C         C         1.0       0.9518574781091746  0.2702944486517352  0.9475109351658745 1.0000   
         C         C         1.0       0.9758359427038245  0.26248893583750005           0.9267703925445459 1.0000   
         C         C         1.0       0.9674492344433221  0.2448951665479595  0.9012355954052647 1.0000   
         C         C         1.0       0.9316492497608094  0.23926921689160427           0.894316256740528  1.0000   
         C         C         1.0       0.9654358514059171  0.2800091219731755  0.9803153571050283 1.0000   
         C         C         1.0       0.950956669885067   0.3901617641080961  0.9688687054979441 1.0000   
         C         C         1.0       0.930687129258581   0.3728252488014632  0.9896860170268558 1.0000   
         C         C         1.0       0.9354168469057916  0.3381967072770748  0.9942239285563361 1.0000   
         C         C         1.0       0.9611971833234273  0.3205165701650858  0.9780974212144584 1.0000   
         C         C         1.0       0.9828438043075214  0.33952093586799953           0.9597106353529089 1.0000   
         C         C         1.0       0.9804778623819652  0.37336933684115314           0.9563182039510335 1.0000   
         C         C         1.0       0.0035516186118023096         0.26697947323913235          0.9873527315573144 1.0000   
         C         C         1.0       0.012952042534970065          0.23234473155695562          0.9847788655283284 1.0000   
         C         C         1.0       0.043800458110123675          0.22035038561353051          0.9964493475776862 1.0000   
         C         C         1.0       0.06574981660032653           0.24156243288364385          0.012322329104768714         1.0000   
         C         C         1.0       0.05635968254971946           0.2754600561855128 0.015405179825577209         1.0000   
         C         C         1.0       0.02698995937276427           0.2880968209152382 0.0024905618249393413        1.0000   
         C         C         1.0       0.9487340385826674  0.2720001094624535  0.03323458487651787          1.0000   
         C         C         1.0       0.9369414601203203  0.25230626060022004           0.05539099900322797          1.0000   
         C         C         1.0       0.9187622886342701  0.22249068899918747           0.051022911183365105         1.0000   
         C         C         1.0       0.9146288644396517  0.21069720116782584           0.023114059726790703         1.0000   
         C         C         1.0       0.9266308502552953  0.22986885655591915           0.0007862590989593521        1.0000   
         C         C         1.0       0.9435114975202075  0.2603264180838787  0.005109191262479662         1.0000   
         H         H         1.0       0.8876325665920153  0.1653211903142894  0.836784381655792  1.0000   
         H         H         1.0       0.8857350653002727  0.27210417194239517           0.8545377714630358 1.0000   
         H         H         1.0       0.8379968455574524  0.27793770683814745           0.817325862353398  1.0000   
         H         H         1.0       0.8441051787827506  0.17375015737029464           0.7982432025933393 1.0000   
         H         H         1.0       0.9522233737222414  0.24794342842640532           0.8290300851780009 1.0000   
         H         H         1.0       0.006913246042477006          0.23497678980871595          0.8026845701188381 1.0000   
         H         H         1.0       0.011854351829691856          0.13864650701021342          0.8475213121370624 1.0000   
         H         H         1.0       0.9597939796279271  0.14529689618257857           0.8665504804770952 1.0000   
         H         H         1.0       0.8798640773503348  0.2522556326587269  0.9076505805349926 1.0000   
         H         H         1.0       0.8965996415020425  0.2753910695972454  0.9532887028414035 1.0000   
         H         H         1.0       0.003000285643904199          0.26490904613930216          0.9310019699323515 1.0000   
         H         H         1.0       0.9878100406341078  0.23622001642262966           0.8884512452622354 1.0000   
         H         H         1.0       0.910592989693256   0.3881846599285504  0.00029798631462152336       1.0000   
         H         H         1.0       0.9158549884882112  0.32364300311291805           0.006427521916452239         1.0000   
         H         H         1.0       0.005813168523620016          0.326345713374089  0.9509787973738724 1.0000   
         H         H         1.0       0.9966131603139184  0.3855797699411559  0.9407892449544836 1.0000   
         H         H         1.0       0.9943815052547165  0.21468995189451345           0.9768740012722192 1.0000   
         H         H         1.0       0.04982759362514755           0.19298153967529955          0.9939023803682251 1.0000   
         H         H         1.0       0.07008430488125983           0.2924154688681887 0.030545857014642408         1.0000   
         H         H         1.0       0.020633619565993078          0.31426594310881983          0.0073213960738287565        1.0000   
         H         H         1.0       0.9650247533226841  0.2945454232638665  0.03730655199726196          1.0000   
         H         H         1.0       0.9457033187159781  0.26260963815146304           0.07710132737507158          1.0000   
         H         H         1.0       0.9033867101358044  0.18671092522744057           0.01839403097643255          1.0000   
         H         H         1.0       0.9216615560270187  0.2217069953270535  0.9794074555656404 1.0000   
         C         C         1.0       0.7813839438901621  0.8843545732156173  0.3004974480803417 1.0000   
         C         C         1.0       0.8075476807061032  0.8643980678919906  0.2882335459875683 1.0000   
         C         C         1.0       0.8315896654892273  0.8792645158751817  0.2716270698987519 1.0000   
         C         C         1.0       0.835110915522431   0.9134376263042583  0.26953051849355764          1.0000   
         C         C         1.0       0.813486188271068   0.9334472509431413  0.2871602902977348 1.0000   
         C         C         1.0       0.7862283795783892  0.9195546171374264  0.3007994543143486 1.0000   
         H         H         1.0       0.8082301967100985  0.8359318698865286  0.2903454877315646 1.0000   
         H         H         1.0       0.8510939338433948  0.861185221127269   0.2604390667291852 1.0000   
         H         H         1.0       0.8167102215920324  0.9614642423894467  0.2890620386385337 1.0000   
         H         H         1.0       0.7677957178206795  0.9353740520305448  0.31088268288318976          1.0000   
         C         C         1.0       0.8263183291208884  0.9840984939473727  0.2345173107993769 1.0000   
         C         C         1.0       0.8578692032437297  0.9659489655608092  0.23610420639403434          1.0000   
         C         C         1.0       0.886764674571411   0.9829638170586029  0.22377788504419813          1.0000   
         C         C         1.0       0.8849722440922199  0.0169810811677793  0.21680498463126166          1.0000   
         C         C         1.0       0.8530694271761976  0.03256804779129885           0.21354901168587892          1.0000   
         C         C         1.0       0.8226518524566859  0.016021193262143685         0.22295133883973883          1.0000   
         C         C         1.0       0.8636193552195153  0.9283032430738094  0.24622835014767894          1.0000   
         C         C         1.0       0.8617420720383363  0.9107649929836682  0.2143583006531255 1.0000   
         C         C         1.0       0.8896969335236515  0.9087823582922151  0.1960803542728463 1.0000   
         C         C         1.0       0.8856541953163485  0.9008096674501838  0.1672161850516293 1.0000   
         C         C         1.0       0.85226057164352    0.8931486551588349  0.1561131631190452 1.0000   
         C         C         1.0       0.8243645864762366  0.8926589040868929  0.17422709438870843          1.0000   
         C         C         1.0       0.8285982661169354  0.9031991489899941  0.20220318807579732          1.0000   
         C         C         1.0       0.910721863702393   0.9490470473125662  0.28263854413857764          1.0000   
         C         C         1.0       0.9414868713858439  0.9455870420909768  0.2984560144716119 1.0000   
         C         C         1.0       0.9611096259000216  0.9163117771971194  0.2973821179681314 1.0000   
         C         C         1.0       0.9491262231372203  0.8910261937175685  0.279641052881739  1.0000   
         C         C         1.0       0.9183747880689545  0.8941755968083935  0.2625985535965786 1.0000   
         C         C         1.0       0.8996956686040518  0.9235722567339288  0.26369864838039375          1.0000   
         C         C         1.0       0.9999976984626714  0.9168911091777653  0.3130328432524717 1.0000   
         C         C         1.0       0.05574383584302564           0.9282707771430584 0.22925118394206306          1.0000   
         C         C         1.0       0.03618966828287529           0.9544281606157501 0.2408105398091959 1.0000   
         C         C         1.0       0.020154972511454258          0.9515200913574919 0.26705277577728515          1.0000   
         C         C         1.0       0.021909973316919906          0.9211813472722117 0.2827973463245904 1.0000   
         C         C         1.0       0.04300201065929432           0.8944747038571238 0.2701503924807218 1.0000   
         C         C         1.0       0.05838035243149883           0.8981049122296632 0.2436145312297422 1.0000   
         C         C         1.0       0.013609397371566079          0.8837624184811775 0.32991888256083407          1.0000   
         C         C         1.0       0.9908362531615043  0.8570330909187562  0.33535859728744133          1.0000   
         C         C         1.0       0.0034302283619003214         0.8275947366559923 0.3464463013044546 1.0000   
         C         C         1.0       0.03860853215847726           0.8211418995795767 0.3483963808230217 1.0000   
         C         C         1.0       0.06129460035886152           0.8470938260332639 0.34433832660918423          1.0000   
         C         C         1.0       0.047906570699635956          0.8785984896410046 0.3367875540403342 1.0000   
         C         C         1.0       0.028558688095886353          0.973005623160219  0.3319214878897837 1.0000   
         C         C         1.0       0.024851095889552255          0.0017362615877138943        0.3495823340662118 1.0000   
         C         C         1.0       0.9996973354957017  0.003576961831593062         0.37143807928493294          1.0000   
         C         C         1.0       0.978950867347879   0.975655671206159   0.37650840250004736          1.0000   
         C         C         1.0       0.9834976777323786  0.9459569262684424  0.3597216680055058 1.0000   
         C         C         1.0       0.006667349746209748          0.9450965130947111 0.3357408436843584 1.0000   
         H         H         1.0       0.8026633973679219  0.972401334531577   0.24188048819977703          1.0000   
         H         H         1.0       0.9112328962415028  0.9719874061571382  0.224649215131409  1.0000   
         H         H         1.0       0.9096615437715423  0.02991073662800159           0.21132961541499132          1.0000   
         H         H         1.0       0.7979805642972423  0.028982836327771544         0.22440209517982124          1.0000   
         H         H         1.0       0.9157651068871114  0.9115604782361879  0.20388691549934554          1.0000   
         H         H         1.0       0.9075565156011051  0.8959044361911902  0.15511679047191665          1.0000   
         H         H         1.0       0.7991461794110695  0.8883037320295826  0.16629069044319045          1.0000   
         H         H         1.0       0.8056412769050851  0.9048946336460437  0.21596314434774644          1.0000   
         H         H         1.0       0.8968981499240695  0.9722516451789389  0.2853836706520082 1.0000   
         H         H         1.0       0.9506739173880638  0.9681849818755027  0.31050733462729424          1.0000   
         H         H         1.0       0.9661358411648354  0.8685611536054813  0.27682920259890526          1.0000   
         H         H         1.0       0.9113823922649997  0.8757567780759249  0.2455576784015541 1.0000   
         H         H         1.0       0.030484067722678754          0.9766614001821823 0.22662735443625606          1.0000   
         H         H         1.0       0.004841217030678635          0.9735569413913224 0.2726548486907825 1.0000   
         H         H         1.0       0.04123457188892665           0.8681417117263256 0.27932106981754085          1.0000   
         H         H         1.0       0.0706873674569731  0.8748934335979274  0.23329383431551856          1.0000   
         H         H         1.0       0.9628572632146051  0.8599563603016401  0.333610622510447  1.0000   
         H         H         1.0       0.9858993814634216  0.8072822049924201  0.35059428912028034          1.0000   
         H         H         1.0       0.08864304746480155           0.8442657472831484 0.34425668164956763          1.0000   
         H         H         1.0       0.06700816178690397           0.8988109355528231 0.33586163451740364          1.0000   
         H         H         1.0       0.05006055626641033           0.972798790917741  0.3167748127568234 1.0000   
         H         H         1.0       0.042827740623267996          0.02426068609696541          0.3462237373719649 1.0000   
         H         H         1.0       0.959205539482012   0.9779518323241307  0.3932712944155361 1.0000   
         H         H         1.0       0.9681161425002198  0.922491524776329   0.36304693703919866          1.0000   
         C         C         1.0       0.05638375225224127           0.9067523064769802 0.9954554831146118 1.0000   
         C         C         1.0       0.05077962728325298           0.9382804927693155 0.9848735796614919 1.0000   
         C         C         1.0       0.02893522113422664           0.944216320550737  0.9619308384138407 1.0000   
         C         C         1.0       0.012734217807476744          0.9159168639573781 0.9475563070564589 1.0000   
         C         C         1.0       0.016218792899907353          0.8843672801690461 0.9589369636223867 1.0000   
         C         C         1.0       0.03829151961967581           0.8787379976459221 0.981736069830932  1.0000   
         H         H         1.0       0.05994455248997057           0.9604124709708431 0.996057116943915  1.0000   
         H         H         1.0       0.01963650320633481           0.9698950351929195 0.9570267388047892 1.0000   
         H         H         1.0       0.9992323211955336  0.8641155443860218  0.9533918216907231 1.0000   
         H         H         1.0       0.04086756370226285           0.8533636303719511 0.9912482904106785 1.0000   
         C         C         1.0       0.024927754132338276          0.8806089010300552 0.8922168317141793 1.0000   
         C         C         1.0       0.9906221538918825  0.8905930794659909  0.8997147344382507 1.0000   
         C         C         1.0       0.9620033669339727  0.8729153930229231  0.8861560523419882 1.0000   
         C         C         1.0       0.9690773213470354  0.8481799525998442  0.8657109160749578 1.0000   
         C         C         1.0       0.00298211971186624           0.839477677156733  0.8601645893672378 1.0000   
         C         C         1.0       0.030568912029713458          0.8557142986082189 0.8732135639403392 1.0000   
         C         C         1.0       0.9849962783534477  0.9213335817449015  0.9218057796720583 1.0000   
         C         C         1.0       0.9876370568826934  0.9519569394664016  0.8985974734008979 1.0000   
         C         C         1.0       0.9590814245413471  0.9603494125625086  0.8820790005683921 1.0000   
         C         C         1.0       0.9593778444275916  0.9852658799906201  0.8611769428631488 1.0000   
         C         C         1.0       0.9894065864503262  0.9986169169957612  0.8538390184474063 1.0000   
         C         C         1.0       0.019563355572612018          0.9903694204636714 0.8680916577401668 1.0000   
         C         C         1.0       0.019318726637418848          0.9682285426921615 0.8910041302746728 1.0000   
         C         C         1.0       0.9291856955093494  0.8987327962058402  0.9503624272110233 1.0000   
         C         C         1.0       0.8988509395902432  0.904946560840734   0.965347761796175  1.0000   
         C         C         1.0       0.8854834723578054  0.9384259426614646  0.9682727285967392 1.0000   
         C         C         1.0       0.9056345881652743  0.9647700460025435  0.9571307009308635 1.0000   
         C         C         1.0       0.9370491126837264  0.9575164360059936  0.9454838808143677 1.0000   
         C         C         1.0       0.9492313140681138  0.9240109013295188  0.9393009003789414 1.0000   
         C         C         1.0       0.8482502159492539  0.9440965180721838  0.9802066953101212 1.0000   
         C         C         1.0       0.7875472689449845  0.8761534132852024  0.9204227478716546 1.0000   
         C         C         1.0       0.7783675608939556  0.8770562960821601  0.9488076528995696 1.0000   
         C         C         1.0       0.7944301105587295  0.9011238663664634  0.9667912663379326 1.0000   
         C         C         1.0       0.8233525975600977  0.921570136115328   0.9584710408911945 1.0000   
         C         C         1.0       0.8318322541869517  0.91759150201513    0.9299003853840174 1.0000   
         C         C         1.0       0.8135120521603478  0.8962620700143499  0.9116980860853978 1.0000   
         C         C         1.0       0.8366433745360361  0.9827842969163286  0.9790724476755398 1.0000   
         C         C         1.0       0.8547934541716543  0.00629113891914268           0.9969637881074688 1.0000   
         C         C         1.0       0.8547990087758347  0.03988965721439186           0.9924364472864778 1.0000   
         C         C         1.0       0.8349734470600005  0.05292055804277229           0.969250810151095  1.0000   
         C         C         1.0       0.8125341807987879  0.030489949961192586         0.9532728956070182 1.0000   
         C         C         1.0       0.8141185623352319  0.9953527985295234  0.9569822887070284 1.0000   
         C         C         1.0       0.815670671827077   0.938558522401064   0.028481996763021433         1.0000   
         C         C         1.0       0.8116639727329564  0.9312385474835917  0.057259328976116075         1.0000   
         C         C         1.0       0.840159160522512   0.921904916403742   0.0728294881366327 1.0000   
         C         C         1.0       0.8726110596799788  0.916787332376441   0.05907479117099035          1.0000   
         C         C         1.0       0.8762092039046869  0.9215472291113871  0.03044099742298889          1.0000   
         C         C         1.0       0.8467558997577614  0.932531014419725   0.013445003145518886         1.0000   
         H         H         1.0       0.0474490230175371  0.8916693247466502  0.9018230042595579 1.0000   
         H         H         1.0       0.9340899463282241  0.8779935234698396  0.8898230225920901 1.0000   
         H         H         1.0       0.9453754218615881  0.8348007126652037  0.8580083991971131 1.0000   
         H         H         1.0       0.05649238806412867           0.8463548967729702 0.8680658310225258 1.0000   
         H         H         1.0       0.932866689766894   0.9471057584310327  0.8826902465286688 1.0000   
         H         H         1.0       0.9333083018929497  0.9918992888695701  0.8527511977804917 1.0000   
         H         H         1.0       0.045756991327515095          0.000683252738079787         0.8609065159664371 1.0000   
         H         H         1.0       0.04364929248235283           0.9593881942439697 0.8998135841574983 1.0000   
         H         H         1.0       0.9348546648675226  0.8725934586141487  0.9441007364466912 1.0000   
         H         H         1.0       0.8804897411740242  0.8854239510829521  0.971169792439684  1.0000   
         H         H         1.0       0.8983145349021159  0.9914033632856774  0.9566781344577352 1.0000   
         H         H         1.0       0.9526249332087144  0.978570964664827   0.938836535233362  1.0000   
         H         H         1.0       0.7572158825900731  0.8616879847561533  0.9573135303869398 1.0000   
         H         H         1.0       0.7875262876478833  0.9020377389768356  0.9903993523569753 1.0000   
         H         H         1.0       0.8534433566574586  0.9309180765986896  0.9197112358165965 1.0000   
         H         H         1.0       0.8238684749002503  0.8955293599873241  0.8913864840107251 1.0000   
         H         H         1.0       0.8720267099380681  0.9974911684416347  0.013784698453387811         1.0000   
         H         H         1.0       0.8718893223740307  0.0558586266925607  0.004625703987905627         1.0000   
         H         H         1.0       0.7983598760428032  0.04147929455377519           0.9348929081351187 1.0000   
         H         H         1.0       0.8032733042936889  0.9801051233997233  0.9396801685784864 1.0000   
         H         H         1.0       0.792352149088177   0.9473104014522044  0.01655927216037778          1.0000   
         H         H         1.0       0.7875446030752827  0.93334010639474    0.07054466214527788          1.0000   
         H         H         1.0       0.8963311952501748  0.9098647748478315  0.07254485543986999          1.0000   
         H         H         1.0       0.8992721895441105  0.9125820536488756  0.02019945264273204          1.0000   
         C         C         1.0       0.24405694180766174           0.7882416305011977 0.2771475122815437 1.0000   
         C         C         1.0       0.2730114517991211  0.8078413013106729  0.2721739893464291 1.0000   
         C         C         1.0       0.2685734584160848  0.8425693436813836  0.26528789801567576          1.0000   
         C         C         1.0       0.23622521315448383           0.8577425716989231 0.26129870412188005          1.0000   
         C         C         1.0       0.20774024432238342           0.8381551669993792 0.2703172607929631 1.0000   
         C         C         1.0       0.21137406394668032           0.8045086362722698 0.2779751648086791 1.0000   
         H         H         1.0       0.2981956274396218  0.796196804031537   0.26881647764552996          1.0000   
         H         H         1.0       0.2917201912605749  0.8582202996845708  0.2604804954106026 1.0000   
         H         H         1.0       0.1822830297619127  0.8510246534539124  0.2731113939532188 1.0000   
         H         H         1.0       0.18631276212698802           0.789084831912516  0.2792966925929379 1.0000   
         C         C         1.0       0.17601537329157607           0.8875999487594181 0.22114257595467113          1.0000   
         C         C         1.0       0.19784747455717344           0.909030193916864  0.23703250397557524          1.0000   
         C         C         1.0       0.18850832405212792           0.9432287834792867 0.23855072189426518          1.0000   
         C         C         1.0       0.15753001448885914           0.9534390056074121 0.22706020162017665          1.0000   
         C         C         1.0       0.1356856741008758  0.9322981850661279  0.2117571068109697 1.0000   
         C         C         1.0       0.14691540102317055           0.8990128659415534 0.20658705758430168          1.0000   
         C         C         1.0       0.23515224363091192           0.8950619452713661 0.2492574461979347 1.0000   
         C         C         1.0       0.2570843426580603  0.8971961903858038  0.21882668445063427          1.0000   
         C         C         1.0       0.2689384027089637  0.9284349773505287  0.2090002902288896 1.0000   
         C         C         1.0       0.27667704816936256           0.93135284199388   0.17918412003991235          1.0000   
         C         C         1.0       0.278503375116871   0.9028778480545978  0.16233996462389275          1.0000   
         C         C         1.0       0.2729370418644021  0.8718668546812531  0.17465269825715538          1.0000   
         C         C         1.0       0.25989519587029913           0.86958228379213   0.2014046008945236 1.0000   
         C         C         1.0       0.2257301149614564  0.9258646010520359  0.29714800802929403          1.0000   
         C         C         1.0       0.23597225201430835           0.9465311012274059 0.319635949473435  1.0000   
         C         C         1.0       0.26841015831557324           0.9623829026383031 0.31947475330255626          1.0000   
         C         C         1.0       0.2928213705284052  0.9509270429549983  0.29847713630447337          1.0000   
         C         C         1.0       0.2817404838338121  0.927736529395133   0.27849257823805484          1.0000   
         C         C         1.0       0.24908616972045633           0.9156621338778382 0.2768415052356169 1.0000   
         C         C         1.0       0.27687468774529295           0.9980765189560254 0.3354563113509136 1.0000   
         C         C         1.0       0.31377748540863987           0.06266000566528485          0.2634551934717716 1.0000   
         C         C         1.0       0.27916309292858504           0.05288000208888377          0.2641532374019303 1.0000   
         C         C         1.0       0.2686496632872787  0.03371101078599992           0.28723635435398664          1.0000   
         C         C         1.0       0.28971624299233695           0.023657949069041395         0.310586193771544  1.0000   
         C         C         1.0       0.32415838282397913           0.033694124186616  0.3080991233558834 1.0000   
         C         C         1.0       0.33559460298728555           0.05343275222298227          0.2855914394224977 1.0000   
         C         C         1.0       0.3077387418048521  0.9949788584514275  0.35850593492231564          1.0000   
         C         C         1.0       0.33290934774921677           0.9679428100500983 0.36206832724918075          1.0000   
         C         C         1.0       0.36171511488572233           0.9719696829004623 0.37792989479750727          1.0000   
         C         C         1.0       0.367353666840143   0.0019078767711309115        0.39446472385310877          1.0000   
         C         C         1.0       0.3429387575015473  0.027995916469749638         0.3921354028513438 1.0000   
         C         C         1.0       0.3143589456933491  0.02462402073792158           0.37317846650387776          1.0000   
         C         C         1.0       0.22031644778340115           0.03092066802691873          0.347222042208783  1.0000   
         C         C         1.0       0.18702969333254438           0.03222181401417101          0.3600358585433661 1.0000   
         C         C         1.0       0.1820877140794363  0.012581180252676294         0.384268891057076  1.0000   
         C         C         1.0       0.20815826506580146           0.9898035031001081 0.39320394063877384          1.0000   
         C         C         1.0       0.2377601548232408  0.9872672223671449  0.3791093540246413 1.0000   
         C         C         1.0       0.24492458657543698           0.007216606120508562         0.35434346302847036          1.0000   
         H         H         1.0       0.18582149251316235           0.8627212905427712 0.21722863787501928          1.0000   
         H         H         1.0       0.20698027179496112           0.9612079961662077 0.24643018724800259          1.0000   
         H         H         1.0       0.15024084219308173           0.979964687926785  0.23072456750183065          1.0000   
         H         H         1.0       0.13337674941792496           0.8858156848139646 0.18869076712199914          1.0000   
         H         H         1.0       0.26829925778498637           0.951284090910086  0.22076597994010344          1.0000   
         H         H         1.0       0.27371811937230917           0.9562746069249182 0.17017455303996318          1.0000   
         H         H         1.0       0.2768065519849418  0.8484613918295082  0.16317945528081979          1.0000   
         H         H         1.0       0.25206754595296016           0.8437289343747271 0.20919965660561776          1.0000   
         H         H         1.0       0.19904277547327434           0.9163990785579132 0.29580569096244547          1.0000   
         H         H         1.0       0.21477561372512444           0.9517154341048616 0.33358974962438165          1.0000   
         H         H         1.0       0.31759108947936443           0.9634026443576091 0.29523419281832103          1.0000   
         H         H         1.0       0.3006606152677903  0.9222392180727566  0.26220768013392814          1.0000   
         H         H         1.0       0.2610117565641652  0.05540178892139469           0.24657050988227647          1.0000   
         H         H         1.0       0.24286304909813308           0.021935742513600864         0.2849664230782482 1.0000   
         H         H         1.0       0.3450990022356058  0.025155005902140815         0.3227364688677403 1.0000   
         H         H         1.0       0.36495358202001027           0.05743983070346714          0.2865039531292552 1.0000   
         H         H         1.0       0.3301004084923648  0.944109530444235   0.3515926640312661 1.0000   
         H         H         1.0       0.3802360738745128  0.9515237453630416  0.38047546091123224          1.0000   
         H         H         1.0       0.34825759411020374           0.05410641263287431          0.39971906469842056          1.0000   
         H         H         1.0       0.29641601009445057           0.04766373588466344          0.37192639698668944          1.0000   
         H         H         1.0       0.22247140150377234           0.049409098005699814         0.33128522435156327          1.0000   
         H         H         1.0       0.16837789653325114           0.05080128902486636          0.35240893712975874          1.0000   
         H         H         1.0       0.2026080286733828  0.9739323070790266  0.4123217579035892 1.0000   
         H         H         1.0       0.256885478004778   0.9674686868929072  0.38625287379491663          1.0000   
         C         C         1.0       0.31404601499015    0.03899047778817355           0.013017410874220259         1.0000   
         C         C         1.0       0.2794899457453288  0.03136665884907974           0.0068069083473600855        1.0000   
         C         C         1.0       0.2688016231831774  0.020721160352252577         0.9792121559970184 1.0000   
         C         C         1.0       0.29378921140036585           0.0177095135375962 0.9569874038475426 1.0000   
         C         C         1.0       0.32893144627288734           0.024003986373906102         0.9648021139991787 1.0000   
         C         C         1.0       0.33819010504805574           0.03435697819572692          0.9918930666629988 1.0000   
         H         H         1.0       0.2597460573664353  0.03663095665499183           0.022792429255280577         1.0000   
         H         H         1.0       0.24253979434202047           0.014228245519546823         0.9734087217628463 1.0000   
         H         H         1.0       0.35067436882987724           0.02088051631804655          0.9499035785615481 1.0000   
         H         H         1.0       0.3657414544105417  0.03906163433936883           0.996590286323686  1.0000   
         C         C         1.0       0.3319453137109036  0.03558972320068233           0.8990616824804886 1.0000   
         C         C         1.0       0.31574719232412257           0.004009053025503473         0.903762425151962  1.0000   
         C         C         1.0       0.3310265234582036  0.9751866701967903  0.8911682976594232 1.0000   
         C         C         1.0       0.36289102722579986           0.9781457693573485 0.8789163687103364 1.0000   
         C         C         1.0       0.3782963525214015  0.008747870686478088         0.874803771651659  1.0000   
         C         C         1.0       0.36218219871299917           0.03868665258713455          0.8842594109005603 1.0000   
         C         C         1.0       0.28436822344522844           0.00044601636629848507       0.9250969060511899 1.0000   
         C         C         1.0       0.25145682813304004           0.015431352754738725         0.9072232264670275 1.0000   
         C         C         1.0       0.24376858035954702           0.002844701152303619         0.8784612687062793 1.0000   
         C         C         1.0       0.2141295997275068  0.012082488717303663         0.8633300651915998 1.0000   
         C         C         1.0       0.18911130175221957           0.029673071153788477         0.8770810106448518 1.0000   
         C         C         1.0       0.1972127318371983  0.044969350788906626         0.9035195697513947 1.0000   
         C         C         1.0       0.22708240099167937           0.03728353611387525          0.9179715143926006 1.0000   
         C         C         1.0       0.298694996744674   0.9447445904095125  0.9507347588057861 1.0000   
         C         C         1.0       0.29049170743293345           0.9157307730081726 0.9649960167547512 1.0000   
         C         C         1.0       0.256434730162573   0.9037708909703716  0.9659768223993461 1.0000   
         C         C         1.0       0.23304777031798551           0.9177395720421466 0.9459364385131671 1.0000   
         C         C         1.0       0.24194231668513863           0.9468908961480025 0.9310493802247394 1.0000   
         C         C         1.0       0.2743325074603025  0.963321776028064   0.93459031895735   1.0000   
         C         C         1.0       0.24511006376630734           0.8723482960158252 0.9860045728370189 1.0000   
         C         C         1.0       0.2942395940804416  0.7993713178177874  0.9285483658931911 1.0000   
         C         C         1.0       0.307269515303785   0.8042295502937937  0.9554946266455517 1.0000   
         C         C         1.0       0.2917328400988864  0.8263863592045915  0.9740975569079998 1.0000   
         C         C         1.0       0.2585155502958453  0.8410370042326117  0.9680660493203158 1.0000   
         C         C         1.0       0.2435346348440476  0.831821308205539   0.941502646933865  1.0000   
         C         C         1.0       0.26080739869549685           0.811800128983598  0.9217576909886676 1.0000   
         C         C         1.0       0.20406248985840658           0.8708131396221157 0.992014858875973  1.0000   
         C         C         1.0       0.18745531161984152           0.8999726010161302 0.0012079274295779818        1.0000   
         C         C         1.0       0.15344160057134568           0.8990052381155512 0.011063663633377407         1.0000   
         C         C         1.0       0.1335453289352318  0.8694717898516973  0.007335852018519828         1.0000   
         C         C         1.0       0.14849200420132463           0.840572663298456  0.9971170362702187 1.0000   
         C         C         1.0       0.1832782305471861  0.8406471219159167  0.989936120691925  1.0000   
         C         C         1.0       0.2571189614950661  0.8492351868429587  0.03700197920566439          1.0000   
         C         C         1.0       0.2581470226716009  0.8539828870051525  0.06647429334236032          1.0000   
         C         C         1.0       0.2609443073588284  0.886392737159352   0.07861531906849861          1.0000   
         C         C         1.0       0.268874441064788   0.9134497537564562  0.06078543124289437          1.0000   
         C         C         1.0       0.2670708409329411  0.9087394504146129  0.03074931427775307          1.0000   
         C         C         1.0       0.2591429055857163  0.8770475299446319  0.018425014154179076         1.0000   
         H         H         1.0       0.3172588859061076  0.05674483952811915           0.9107645346216117 1.0000   
         H         H         1.0       0.3225131497137254  0.949602121644758   0.8942125785042168 1.0000   
         H         H         1.0       0.3766521379302275  0.9548416361957617  0.8717436899307534 1.0000   
         H         H         1.0       0.3743995837410512  0.06305106954479855           0.8826637573085303 1.0000   
         H         H         1.0       0.2618191908010464  0.9867482055312105  0.8681815884951681 1.0000   
         H         H         1.0       0.21025567241037973           0.003759652382194556         0.8415231394883594 1.0000   
         H         H         1.0       0.17761792518015482           0.06029101071156129          0.9165431167179957 1.0000   
         H         H         1.0       0.22885055847566027           0.05105992861001173          0.93854350174802   1.0000   
         H         H         1.0       0.3263637693898835  0.9525301509697666  0.9532470466695132 1.0000   
         H         H         1.0       0.3106540287164386  0.9039765887354534  0.9785719137180854 1.0000   
         H         H         1.0       0.20745677791220302           0.9059195702426276 0.9408883426716568 1.0000   
         H         H         1.0       0.2207089845717547  0.9545417609993422  0.9165071321348376 1.0000   
         H         H         1.0       0.3325551919633019  0.7959722496930047  0.9617661765652737 1.0000   
         H         H         1.0       0.3053105637345335  0.8316537080217726  0.9935241018045694 1.0000   
         H         H         1.0       0.21634115558132402           0.8408218590737693 0.9380465656887029 1.0000   
         H         H         1.0       0.24909703785475648           0.8074622938950897 0.9003268920393482 1.0000   
         H         H         1.0       0.20269476788262622           0.9222963368402959 0.0067027962917953765        1.0000   
         H         H         1.0       0.14337173975754072           0.9221331258691609 0.02270442112268034          1.0000   
         H         H         1.0       0.13354577792013456           0.8183465211237639 0.9940782770559806 1.0000   
         H         H         1.0       0.1935011559484073  0.8169363962814159  0.9801364737978513 1.0000   
         H         H         1.0       0.2469835685705824  0.8252010747960207  0.026873873361344947         1.0000   
         H         H         1.0       0.2532731129871624  0.8320525629131209  0.07942263786059711          1.0000   
         H         H         1.0       0.2713023002090454  0.9394217491894985  0.07027138108822828          1.0000   
         H         H         1.0       0.2674309554780011  0.9312963358712402  0.017581101276858302         1.0000   
         C         C         1.0       0.408800992271263   0.3113107197734502  0.31399104717423915          1.0000   
         C         C         1.0       0.3984907765989302  0.31732169692931067           0.28633090892963126          1.0000   
         C         C         1.0       0.3743214602014515  0.2974641157598431  0.27234006673317673          1.0000   
         C         C         1.0       0.3584160915712776  0.27027615343123707           0.28635783852670904          1.0000   
         C         C         1.0       0.36946936419253884           0.2634997286215661 0.3142919400921069 1.0000   
         C         C         1.0       0.39302120039235544           0.28464544149287685          0.32806436788967286          1.0000   
         H         H         1.0       0.4136763111283507  0.3367736612910518  0.2758612591924761 1.0000   
         H         H         1.0       0.3665944150090852  0.305136170423981   0.24957008227106506          1.0000   
         H         H         1.0       0.35777397247214765           0.24232239792720997          0.3255947096460354 1.0000   
         H         H         1.0       0.40124681240352045           0.2785661469509907 0.3494664541480513 1.0000   
         C         C         1.0       0.3727130155784187  0.1947279387125677  0.27253495035831776          1.0000   
         C         C         1.0       0.3378831649424653  0.2058958893959585  0.2740918020996317 1.0000   
         C         C         1.0       0.3108329414941391  0.1829111085820827  0.26751731753589786          1.0000   
         C         C         1.0       0.3162643144580016  0.1514632857725161  0.2581771355223375 1.0000   
         C         C         1.0       0.3508324113783451  0.14041638484474897           0.2554136528625135 1.0000   
         C         C         1.0       0.37818088788736204           0.16174623481353437          0.26281771145976424          1.0000   
         C         C         1.0       0.3312010107764517  0.24708656132028792           0.27023939922907964          1.0000   
         C         C         1.0       0.3272540445113563  0.24922681831307333           0.23493293210333654          1.0000   
         C         C         1.0       0.29557289144922566           0.24360817834155504          0.21994456793632916          1.0000   
         C         C         1.0       0.29457028404972585           0.23756974919788074          0.1909634357367242 1.0000   
         C         C         1.0       0.32334537035431105           0.24018545584817627          0.17460934182077972          1.0000   
         C         C         1.0       0.3547146405295485  0.24658877474881588           0.18854133802314355          1.0000   
         C         C         1.0       0.3575441051684872  0.24962939309702048           0.21830014974601972          1.0000   
         C         C         1.0       0.2805927151182259  0.24312711449047814           0.3073222789833839 1.0000   
         C         C         1.0       0.24616164158455633           0.2484389414717933 0.3128920789221322 1.0000   
         C         C         1.0       0.22614369024698336           0.270797099900618  0.297397791029825  1.0000   
         C         C         1.0       0.24374093858032128           0.29349415437708926          0.279125661100098  1.0000   
         C         C         1.0       0.27834241992784525           0.28761897026246397          0.2731556313185375 1.0000   
         C         C         1.0       0.2965284944149075  0.26172731127243426           0.2863338805001415 1.0000   
         C         C         1.0       0.18271395988189076           0.27064468667096825          0.29814407119061587          1.0000   
         C         C         1.0       0.15308965101296834           0.25272909452611253          0.2068871925019012 1.0000   
         C         C         1.0       0.17415413230575824           0.23060156837553006          0.22256585752924374          1.0000   
         C         C         1.0       0.17777444357317004           0.23477626047101935          0.2512914948287391 1.0000   
         C         C         1.0       0.16822433122601882           0.26563557985990277          0.2654277758424223 1.0000   
         C         C         1.0       0.14872391422343684           0.28899917042473117          0.24910324154801053          1.0000   
         C         C         1.0       0.14113568676136992           0.2820781586075987 0.21996548380716913          1.0000   
         C         C         1.0       0.16920158347936531           0.3078499176607685 0.31077055514605467          1.0000   
         C         C         1.0       0.190163023627935   0.33417992836507493           0.3215936955412277 1.0000   
         C         C         1.0       0.17600960059369045           0.36282752516445554          0.3328969581540128 1.0000   
         C         C         1.0       0.1394084865257114  0.3664670891629284  0.3338444986790978 1.0000   
         C         C         1.0       0.11984300278538634           0.3395454362879285 0.32518323178750874          1.0000   
         C         C         1.0       0.13336230609948918           0.3109121740231353 0.3130397497062036 1.0000   
         C         C         1.0       0.1522392795338298  0.2145327737417817  0.31525754518788723          1.0000   
         C         C         1.0       0.15113370788808622           0.18779292024018016          0.33419936466122213          1.0000   
         C         C         1.0       0.16315112632366804           0.19148044160415453          0.3622569975518216 1.0000   
         C         C         1.0       0.17671414248157416           0.22353453333245754          0.37135142825197076          1.0000   
         C         C         1.0       0.1779639574994945  0.25003956233204583           0.3525141006879283 1.0000   
         C         C         1.0       0.16633076206334352           0.2452310475262885 0.3233815551306897 1.0000   
         H         H         1.0       0.3953670198354815  0.21044179904587387           0.2745967607177188 1.0000   
         H         H         1.0       0.28447156525103356           0.19348918505859788          0.2662457999426196 1.0000   
         H         H         1.0       0.29474710560715733           0.13429511391686286          0.2510671240593038 1.0000   
         H         H         1.0       0.4043413842001392  0.15290474700621345           0.2584285412907787 1.0000   
         H         H         1.0       0.26943251157522824           0.24256105077409415          0.23008835886523155          1.0000   
         H         H         1.0       0.2675581680518153  0.23326484864779692           0.18045546983145916          1.0000   
         H         H         1.0       0.3784476933217594  0.2464287355697851  0.17665571240503528          1.0000   
         H         H         1.0       0.38350401053413685           0.24845038220371335          0.22847721645212934          1.0000   
         H         H         1.0       0.295092327036648   0.22406860737013762           0.31863119603141377          1.0000   
         H         H         1.0       0.233339140108046   0.22899595546875057           0.3270122039955218 1.0000   
         H         H         1.0       0.22940131473366332           0.3121799664910802 0.2664606066874183 1.0000   
         H         H         1.0       0.2900814604736726  0.3034306583888183  0.2577419697118164 1.0000   
         H         H         1.0       0.18864949802653325           0.20923985213629812          0.21461995925861482          1.0000   
         H         H         1.0       0.1935590652726064  0.21671484334328756           0.26178989616129544          1.0000   
         H         H         1.0       0.143494027968333   0.31345427339644427           0.25488675780963554          1.0000   
         H         H         1.0       0.12778192633036903           0.30111650542989277          0.20921631967918414          1.0000   
         H         H         1.0       0.21756933172083778           0.3344535645585743 0.3218300804218742 1.0000   
         H         H         1.0       0.19181489932172185           0.38226865291204465          0.3420415150228754 1.0000   
         H         H         1.0       0.09229524628563486           0.34008476996609216          0.32324711712699317          1.0000   
         H         H         1.0       0.11486397947002971           0.29031039450048707          0.3047248012976823 1.0000   
         H         H         1.0       0.14777489736109664           0.2103666604368722 0.29337484850471635          1.0000   
         H         H         1.0       0.14066353175483937           0.16426748484955406          0.32653856713463975          1.0000   
         H         H         1.0       0.18494746925919875           0.2254488904507277 0.39391122714215804          1.0000   
         H         H         1.0       0.18253189106372464           0.27556141269147727          0.36129031321948046          1.0000   
         C         C         1.0       0.1472136064821918  0.24793588190202545           0.002147128086092742         1.0000   
         C         C         1.0       0.1524733203651993  0.2188159761294159  0.9870112543520327 1.0000   
         C         C         1.0       0.17078209294324767           0.2194814864890445 0.9624380993900862 1.0000   
         C         C         1.0       0.18503579677965157           0.24884437198715845          0.9527830391970021 1.0000   
         C         C         1.0       0.18137777809118527           0.2801456118367048 0.9696529339052904 1.0000   
         C         C         1.0       0.1624377662881364  0.2777238273044729  0.994346048983726  1.0000   
         H         H         1.0       0.14211995748428943           0.1957136291727644 0.9936979446610157 1.0000   
         H         H         1.0       0.17523574710008236           0.19601073507127123          0.9493255922325494 1.0000   
         H         H         1.0       0.19580605302719195           0.30307091018159715          0.9640857802034598 1.0000   
         H         H         1.0       0.16007481447537242           0.30068745654516393          0.008256676111317418         1.0000   
         C         C         1.0       0.18555275629904416           0.3020397295148089 0.9010628855960456 1.0000   
         C         C         1.0       0.21652782284531868           0.2857955815789339 0.9101197950760139 1.0000   
         C         C         1.0       0.24766373715422288           0.3006994895469164 0.902851990814978  1.0000   
         C         C         1.0       0.24845136471302393           0.33334892614385087          0.8925339417165675 1.0000   
         C         C         1.0       0.21708786325693677           0.35140949152245676          0.8863934292451326 1.0000   
         C         C         1.0       0.18581573101367646           0.3345578354538567 0.890873077904107  1.0000   
         C         C         1.0       0.21241374846420114           0.25080023515957556          0.9262833202887059 1.0000   
         C         C         1.0       0.20858017580411087           0.22480896074049564          0.8989393715754119 1.0000   
         C         C         1.0       0.2373536460075165  0.21923321209489643           0.8813827789926049 1.0000   
         C         C         1.0       0.2352237411041424  0.19288049931244763           0.8610843993925028 1.0000   
         C         C         1.0       0.20414088352358448           0.17610471249376528          0.8576348172861719 1.0000   
         C         C         1.0       0.17525239804124992           0.18535143494842246          0.8735974878032521 1.0000   
         C         C         1.0       0.17718050635806604           0.20949601608254528          0.8932348472033673 1.0000   
         C         C         1.0       0.26352987231163283           0.2699331396432275 0.9620431671400411 1.0000   
         C         C         1.0       0.2895231379769902  0.2615206378997381  0.9823421370900194 1.0000   
         C         C         1.0       0.3012788769299541  0.22797312501909425           0.9859375181538707 1.0000   
         C         C         1.0       0.283961293211413   0.20369257227640297           0.968564426408502  1.0000   
         C         C         1.0       0.2571227255396056  0.2112389788866953  0.9491637024948084 1.0000   
         C         C         1.0       0.24607919647445012           0.244298006560952  0.9457992714222935 1.0000   
         C         C         1.0       0.3348185805392423  0.220058651569097   0.0038354946246932364        1.0000   
         C         C         1.0       0.40534238072052675           0.27015865115406845          0.9472157042582762 1.0000   
         C         C         1.0       0.39815234871170774           0.28414210497939946          0.9738773098774167 1.0000   
         C         C         1.0       0.37816706028742325           0.26674134816492817          0.9918081176394901 1.0000   
         C         C         1.0       0.36338750287462374           0.2357695235664653 0.9844427500807517 1.0000   
         C         C         1.0       0.37431516817852    0.22013760796776521           0.9589428057632198 1.0000   
         C         C         1.0       0.3955775016894444  0.23682952641908514           0.9404095569494977 1.0000   
         C         C         1.0       0.3405181643531893  0.17915967792114715           0.010104814071103085         1.0000   
         C         C         1.0       0.3126332179823992  0.15942131333863443           0.021123432569049694         1.0000   
         C         C         1.0       0.31615222020832623           0.1259781318210861 0.029701820496971898         1.0000   
         C         C         1.0       0.3485473728040613  0.11050758437211106           0.02692775784302004          1.0000   
         C         C         1.0       0.37701526193818435           0.12964266639288258          0.018792275599775587         1.0000   
         C         C         1.0       0.37384706206872315           0.16336976434729522          0.010653375406626253         1.0000   
         C         C         1.0       0.3654504363278207  0.23351379906604733           0.052194976726276154         1.0000   
         C         C         1.0       0.3667369059707421  0.24509478953726443           0.08115250340743674          1.0000   
         C         C         1.0       0.33737569696530917           0.2557308602728415 0.09289543015888801          1.0000   
         C         C         1.0       0.3057967907925334  0.2547042051682451  0.07762425205953116          1.0000   
         C         C         1.0       0.30468701037767476           0.24595481286706225          0.04923428102477989          1.0000   
         C         C         1.0       0.33477624655389326           0.23492092850839996          0.0354207385594183 1.0000   
         H         H         1.0       0.16142063247632507           0.28744938370395856          0.9027083733014694 1.0000   
         H         H         1.0       0.27325478857723334           0.2892315481674006 0.90723448964671   1.0000   
         H         H         1.0       0.2737940065262583  0.3441421626596274  0.8884798256214353 1.0000   
         H         H         1.0       0.16030546911689203           0.34460886273025154          0.8850770457387471 1.0000   
         H         H         1.0       0.26183195484427946           0.2317127344599186 0.8864596800592589 1.0000   
         H         H         1.0       0.2567018200387772  0.1848649506086436  0.8469886814403086 1.0000   
         H         H         1.0       0.1499617508002269  0.1714891960399712  0.8694337139799027 1.0000   
         H         H         1.0       0.1542126065177203  0.21702397241438887           0.9058260084257973 1.0000   
         H         H         1.0       0.2540895909985545  0.2955756106618433  0.9628384622799017 1.0000   
         H         H         1.0       0.30285486977565196           0.2820271965381752 0.9955382725112603 1.0000   
         H         H         1.0       0.29504413448596695           0.17933355359063097          0.9676520425997318 1.0000   
         H         H         1.0       0.2420477751806821  0.19143302909177082           0.9389597199386224 1.0000   
         H         H         1.0       0.41146882110955413           0.30695919454723897          0.982830749829413  1.0000   
         H         H         1.0       0.3743405265557518  0.27758466903478035           0.013136081530753518         1.0000   
         H         H         1.0       0.36692153410912404           0.19422034192621043          0.9517892017300557 1.0000   
         H         H         1.0       0.40369060858343475           0.2206356452639593 0.9228856105830043 1.0000   
         H         H         1.0       0.2879402539902746  0.1726350334929503  0.022703416900800466         1.0000   
         H         H         1.0       0.2943997013090669  0.11376995988353665           0.038417992171874804         1.0000   
         H         H         1.0       0.4020356520032073  0.11536156428270553           0.01914234079040944          1.0000   
         H         H         1.0       0.3977386536890935  0.17713326611730898           0.005789173863063102         1.0000   
         H         H         1.0       0.38863285744491033           0.2236072302094109 0.04285058806948738          1.0000   
         H         H         1.0       0.39309770480346384           0.24142643224740792          0.09246219476874123          1.0000   
         H         H         1.0       0.2806433386016511  0.26114610894790485           0.08771552627530044          1.0000   
         H         H         1.0       0.2786478689199373  0.24616760248648814           0.03750751016081044          1.0000   
         C         C         1.0       0.3226479409319196  0.23140197084896638           0.14326712297475444          1.0000   
         C         C         1.0       0.3338514175828174  0.262140859547704   0.12522253908121328          1.0000   
         H         H         1.0       0.3393827639018268  0.20877439707313605           0.13840581804763555          1.0000   
         H         H         1.0       0.29681835090575737           0.22261398940772117          0.13521407949260258          1.0000   
         H         H         1.0       0.3621628057772105  0.26711741624528107           0.1334067142047416 1.0000   
         H         H         1.0       0.3160068143459758  0.2847799433464209  0.1318616025039941 1.0000   
         C         C         1.0       0.3259026684379076  0.051420665272718935         0.04377166449010139          1.0000   
         C         C         1.0       0.3557852825685058  0.07758628244429129           0.045981975840154954         1.0000   
         H         H         1.0       0.30378380509789416           0.05855572221875849          0.05584491766119304          1.0000   
         H         H         1.0       0.32728250917421475           0.02901901250880035          0.058074856532103425         1.0000   
         H         H         1.0       0.38130057682394014           0.06471085689367606          0.04190223232368484          1.0000   
         H         H         1.0       0.36039751343114945           0.08503061739252893          0.0691424784864858 1.0000   
         C         C         1.0       0.33055759749217883           0.07660564526115825          0.2367416815583936 1.0000   
         C         C         1.0       0.3587741420980974  0.10595515177612048           0.24135198512690767          1.0000   
         H         H         1.0       0.34572895027570805           0.053108609655653456         0.22968722341862896          1.0000   
         H         H         1.0       0.31230804101720455           0.08620883508449752          0.22001805381385922          1.0000   
         H         H         1.0       0.36836208856152763           0.11188632717539251          0.2199102000896682 1.0000   
         H         H         1.0       0.3829556957841306  0.0959531657551807  0.2526486276637659 1.0000   
         C         C         1.0       0.25389623859948995           0.8910234250783998 0.11171510865264339          1.0000   
         C         C         1.0       0.2846662211523244  0.9042383401203757  0.12911593672709304          1.0000   
         H         H         1.0       0.2281205989018581  0.9031274593483517  0.11374325992060672          1.0000   
         H         H         1.0       0.24589848050254415           0.8670589079939154 0.1231929303516426 1.0000   
         H         H         1.0       0.2909084545588109  0.9300287833629209  0.12182166149538626          1.0000   
         H         H         1.0       0.30896397666020486           0.8878206448893776 0.12437049617171238          1.0000   
         C         C         1.0       0.07425943033198387           0.8982122842265053 0.024342961209350644         1.0000   
         C         C         1.0       0.09905217624350837           0.8682409154061492 0.02409528387052151          1.0000   
         H         H         1.0       0.08815157884777601           0.9214527774882525 0.030892585182505483         1.0000   
         H         H         1.0       0.05284510841826869           0.8941968259727914 0.03993232147569725          1.0000   
         H         H         1.0       0.08428588261576489           0.8440233686161086 0.021082033506775844         1.0000   
         H         H         1.0       0.10810446582929324           0.8647169849516313 0.04810070277456702          1.0000   
         C         C         1.0       0.06885743100828433           0.9303344966958134 0.1988827636205205 1.0000   
         C         C         1.0       0.10456048106349751           0.9498071661343226 0.19699865669527653          1.0000   
         H         H         1.0       0.07122908950548719           0.9035529062419013 0.18923261494187235          1.0000   
         H         H         1.0       0.047205101147814954          0.94442391360321   0.18519599301782033          1.0000   
         H         H         1.0       0.09902283849151912           0.9754387823282935 0.20670246487475732          1.0000   
         H         H         1.0       0.10960842206904482           0.9543460047810428 0.1753949603333262 1.0000   
         C         C         1.0       0.8425197084437502  0.8880752198432883  0.12285161152727662          1.0000   
         C         C         1.0       0.8399989157397061  0.923682552276348   0.10615640270200846          1.0000   
         H         H         1.0       0.8633169949511894  0.8733705047484287  0.11245640643195573          1.0000   
         H         H         1.0       0.8175953913568094  0.8721645908548902  0.11870714358074394          1.0000   
         H         H         1.0       0.8639380100101233  0.9384465251363215  0.11364371977239869          1.0000   
         H         H         1.0       0.8179823759383364  0.9398772218262461  0.11490478994537777          1.0000   
         C         C         1.0       0.8754772208619125  0.09148107290200236           0.943028929840934  1.0000   
         C         C         1.0       0.8416540771402717  0.08969092068203355           0.9598220604831852 1.0000   
         H         H         1.0       0.8725842368375116  0.07374990504106749           0.9233934271813093 1.0000   
         H         H         1.0       0.8983716514963361  0.08105050047203166           0.9554733302745697 1.0000   
         H         H         1.0       0.8193942576535125  0.0978760437410349  0.946945894704035  1.0000   
         H         H         1.0       0.8429709372886214  0.10811650911812427           0.9777675695435349 1.0000   
         C         C         1.0       0.1301699289053592  0.24271653700139997           0.03126644263527556          1.0000   
         C         C         1.0       0.09397143948322001           0.22615887234031756          0.03001093114909259          1.0000   
         H         H         1.0       0.1266168920453528  0.2682800241997008  0.04012877867931697          1.0000   
         H         H         1.0       0.14697251392966276           0.22910873082984304          0.048191637480643035         1.0000   
         H         H         1.0       0.0852506595460903  0.22882812159886431           0.05368839166216399          1.0000   
         H         H         1.0       0.09726124147497638           0.1973258700882826 0.026480461505727027         1.0000   
         C         C         1.0       0.8835640200417594  0.09159752441661717           0.20000935424175992          1.0000   
         C         C         1.0       0.8510124232621681  0.06773821885408471           0.199517967795969  1.0000   
         H         H         1.0       0.8793837391400074  0.11212126179697919           0.18377654669751256          1.0000   
         H         H         1.0       0.904932543484858   0.08067161333243078           0.1896945214359069 1.0000   
         H         H         1.0       0.846654859311443   0.062456448467174575         0.1756830997619139 1.0000   
         H         H         1.0       0.8280133108973625  0.08191596615707408           0.2059768187209441 1.0000   
         C         C         1.0       0.14867229482054012           0.24843809208550005          0.17407093287878173          1.0000   
         C         C         1.0       0.11126700280998891           0.23646666361981067          0.16222183973541077          1.0000   
         H         H         1.0       0.15960943586524556           0.2719053247286878 0.1635024790577741 1.0000   
         H         H         1.0       0.16651947244626641           0.2287926273601355 0.169377098707863  1.0000   
         H         H         1.0       0.1147854593336679  0.2098779827604057  0.1608656172899945 1.0000   
         H         H         1.0       0.10955485818869715           0.24248078691688593          0.13755618370541728          1.0000   
         C         C         1.0       0.8921673634457663  0.2089526972629023  0.10138923157950404          1.0000   
         C         C         1.0       0.9138025444147834  0.19775970419585925           0.07678558015390546          1.0000   
         H         H         1.0       0.8748096991130137  0.22723144299985645           0.09251995491944688          1.0000   
         H         H         1.0       0.8761041901742815  0.18749411842727906           0.10785667224171913          1.0000   
         H         H         1.0       0.9400362724217832  0.18893266744460183           0.08302493079144546          1.0000   
         H         H         1.0       0.9026395103488489  0.17231434951516217           0.0705599521820397 1.0000   
         C         C         1.0       0.38753586202119344           0.9964888921632219 0.44868972846373745          1.0000   
         C         C         1.0       0.3973681260784146  0.00390330703746522           0.41777006808283035          1.0000   
         H         H         1.0       0.4102502340576724  0.998347811436701   0.4630600113762949 1.0000   
         H         H         1.0       0.37988688116395003           0.9702492721033884 0.45008387562851687          1.0000   
         H         H         1.0       0.41893247775218034           0.9876737875963235 0.41202994365875684          1.0000   
         H         H         1.0       0.41007130105785927           0.029221016722756902         0.41876743186624366          1.0000   
         C         C         1.0       0.20082504212491287           0.13541319177316077          0.37585979477735115          1.0000   
         C         C         1.0       0.17048779464727618           0.1610682737779703 0.3846320736207564 1.0000   
         H         H         1.0       0.18967852649547925           0.11562980442887304          0.3609284018207251 1.0000   
         H         H         1.0       0.22147457991091796           0.14979431386874542          0.3640008608778333 1.0000   
         H         H         1.0       0.1742716971905988  0.16917772401478232           0.40783874286429295          1.0000   
         H         H         1.0       0.147915969734886   0.1417239413256967  0.3872008683054879 1.0000   
         C         C         1.0       0.41567884061303    0.27349980484853914           0.5858586450960699 1.0000   
         C         C         1.0       0.43329427281418864           0.24700197878212063          0.606610592893009  1.0000   
         H         H         1.0       0.43642719226031146           0.28324650265998236          0.5730212816875313 1.0000   
         H         H         1.0       0.4094082024216763  0.2974893075233629  0.5979878533361587 1.0000   
         H         H         1.0       0.46102697381570434           0.2538283180002478 0.610758343455478  1.0000   
         H         H         1.0       0.4345610488926243  0.22121698649970692           0.5968529988183195 1.0000   
         C         C         1.0       0.4245577748576573  0.003269117260856769         0.8332398214566721 1.0000   
         C         C         1.0       0.4165124564826605  0.010304759199864177         0.8662490235231007 1.0000   
         H         H         1.0       0.4233718256176589  0.9781954539994494  0.8261013182625986 1.0000   
         H         H         1.0       0.45248194372818606           0.011119789990501783         0.8294008345215224 1.0000   
         H         H         1.0       0.42515824962026955           0.03538569504216027          0.87223175364484   1.0000   
         H         H         1.0       0.4315194741093338  0.9934451440330302  0.8808024233328806 1.0000   
         C         C         1.0       0.20288960533553876           0.14423201814343783          0.8386614881398121 1.0000   
         C         C         1.0       0.22368299483508214           0.11307738220511651          0.849329331975753  1.0000   
         H         H         1.0       0.1757188687666147  0.13338791950696677           0.8365802375053737 1.0000   
         H         H         1.0       0.21065106348287266           0.1535091837922259 0.8175773241518107 1.0000   
         H         H         1.0       0.2340563320351064  0.11867371657232385           0.8720304393140849 1.0000   
         H         H         1.0       0.2051252032775582  0.08978277687432745           0.850311849887155  1.0000   
         C         C         1.0       0.9863519711459368  0.06940047337203148           0.3792524869347058 1.0000   
         C         C         1.0       0.9978630555342417  0.03504558165692906           0.39166999656641865          1.0000   
         H         H         1.0       0.9745308017651484  0.06568014824320834           0.35728204410123854          1.0000   
         H         H         1.0       0.011500029908728004          0.08507636373667182          0.3792193772981344 1.0000   
         H         H         1.0       0.025188945172360366          0.035961409649786  0.40142944678846565          1.0000   
         H         H         1.0       0.9838701914167118  0.03159567968405885           0.41106624968249633          1.0000   
         C         C         1.0       0.7970663447710409  0.2110679093710579  0.4020967484597123 1.0000   
         C         C         1.0       0.7942438497064551  0.199456895977143   0.36997018461709635          1.0000   
         H         H         1.0       0.806671667022147   0.23738037675892787           0.4036957335148241 1.0000   
         H         H         1.0       0.7729013726965603  0.2104100252226795  0.4129652060811067 1.0000   
         H         H         1.0       0.7773781432885979  0.22005191648452027           0.3615168944109747 1.0000   
         H         H         1.0       0.7771573648061298  0.17763706694137094           0.36579319852250486          1.0000   
         C         C         1.0       0.749854752314538   0.9892665038595675  0.610258173636831  1.0000   
         C         C         1.0       0.7586090890569016  0.9707265002345558  0.6391738975867994 1.0000   
         H         H         1.0       0.7242578204974065  0.981451555503803   0.6008008641064662 1.0000   
         H         H         1.0       0.747387139069286   0.017669048343456062         0.6137756626684452 1.0000   
         H         H         1.0       0.7532104752728815  0.9422816966053915  0.6375196511000644 1.0000   
         H         H         1.0       0.7399931343791196  0.9787395301644967  0.6551144380257251 1.0000   
         C         C         1.0       0.9941665893955298  0.062340238915662205         0.8390605420734203 1.0000   
         C         C         1.0       0.9888554154204056  0.024391547554585058         0.8294332967345877 1.0000   
         H         H         1.0       0.9735079161970146  0.06742076718261347           0.8551411449048743 1.0000   
         H         H         1.0       0.02131632164377084           0.06758512289324847          0.8480328113145914 1.0000   
         H         H         1.0       0.00913250019274714           0.015824810120259825         0.8138385006928255 1.0000   
         H         H         1.0       0.9622295265618457  0.023874183760913104         0.8183907708173478 1.0000   
         C         C         1.0       0.8208079870098219  0.2308014685412532  0.7762263029020323 1.0000   
         C         C         1.0       0.8453362150002663  0.24228835886643085           0.7509182482814984 1.0000   
         H         H         1.0       0.8068759278995237  0.2071491420807724  0.7698827226646354 1.0000   
         H         H         1.0       0.8009906666763641  0.2506408176348634  0.7805669947719391 1.0000   
         H         H         1.0       0.8563717656649157  0.2672221329676083  0.7576312520923545 1.0000   
         H         H         1.0       0.8278375561816377  0.24903743646568102           0.7326101936759025 1.0000   
         C         C         1.0       0.03858184187316849           0.771480537169426  0.38556470393049563          1.0000   
         C         C         1.0       0.049582573535978954          0.7844891873306895 0.3553065385140085 1.0000   
         H         H         1.0       0.04957529760960851           0.7449191432745896 0.38960240961034454          1.0000   
         H         H         1.0       0.010095368741380506          0.7664448942332412 0.3847479378686817 1.0000   
         H         H         1.0       0.04332887508868    0.7660401141949222  0.33808355865931455          1.0000   
         H         H         1.0       0.07856088667671551           0.7838425231084466 0.35553426244117714          1.0000   
         C         C         1.0       0.14804388081184425           0.016453974848847253         0.40194746634903383          1.0000   
         C         C         1.0       0.11785386701746493           0.9956721367443992 0.387422893646087  1.0000   
         H         H         1.0       0.15128856497478094           0.010918969393074685         0.42494578038508   1.0000   
         H         H         1.0       0.14111172933691904           0.04293078904452785          0.40109452538648244          1.0000   
         H         H         1.0       0.09624844583152614           0.012573441015358844         0.38437968849743914          1.0000   
         H         H         1.0       0.12623895773645388           0.9839899855260367 0.3658039492707007 1.0000   
         C         C         1.0       0.9943545039937437  0.9111243268902381  0.5691947736134816 1.0000   
         C         C         1.0       0.9546612346402824  0.9009547213519359  0.5712890833990618 1.0000   
         H         H         1.0       0.005758120622260776          0.8980172216055582 0.5880243615080883 1.0000   
         H         H         1.0       0.9957569162604097  0.9389644763165775  0.5735491354919291 1.0000   
         H         H         1.0       0.9496088617075967  0.9027843115381508  0.594605291225309  1.0000   
         H         H         1.0       0.9511201810838552  0.8721663278035771  0.5654029755025382 1.0000   
         C         C         1.0       0.2026377968979573  0.03692674340840729           0.5875945138361874 1.0000   
         C         C         1.0       0.2177967657987451  0.005467182182149921         0.6021535730184043 1.0000   
         H         H         1.0       0.20313189706646104           0.058142089462904334         0.601913453101281  1.0000   
         H         H         1.0       0.17298663336109357           0.03672713205424283          0.583618600836767  1.0000   
         H         H         1.0       0.20206640892906513           0.002486275555391826         0.621141653922908  1.0000   
         H         H         1.0       0.2448950617018331  0.009904539717408458         0.6114868236355162 1.0000   
         C         C         1.0       0.045207704450329844          0.9789524818710013 0.6474907187878631 1.0000   
         C         C         1.0       0.016079992937829912          0.9625772732606154 0.6293954402804949 1.0000   
         H         H         1.0       0.0398546975811751  0.005562646231108026         0.6458112893631256 1.0000   
         H         H         1.0       0.06847024314694128           0.9756374245882741 0.6341351547233739 1.0000   
         H         H         1.0       0.020342501599223572          0.9345409027234646 0.6287200104690968 1.0000   
         H         H         1.0       0.015388053122706191          0.9731288478332719 0.6064802080023695 1.0000   
         C         C         1.0       0.3070885968581224  0.03441749701477481           0.6506365049309555 1.0000   
         C         C         1.0       0.3122794469891423  0.9955715316859849  0.6472494157593529 1.0000   
         H         H         1.0       0.2789139701641784  0.04100367956447126           0.6441987388156434 1.0000   
         H         H         1.0       0.3245309417073269  0.048152472503996346         0.6368151699541124 1.0000   
         H         H         1.0       0.340205990786622   0.9939353206343424  0.6501215013345445 1.0000   
         H         H         1.0       0.3054640889916393  0.9863238364208035  0.6249488588995643 1.0000   
         C         C         1.0       0.2666320511388153  0.7864149551891144  0.6454581462344595 1.0000   
         C         C         1.0       0.24451299005313554           0.7742830840209096 0.6187683119602575 1.0000   
         H         H         1.0       0.2928879204505449  0.7936256116220296  0.6379122917587705 1.0000   
         H         H         1.0       0.27168860807457873           0.7622815424170883 0.6578593240723035 1.0000   
         H         H         1.0       0.21977403989550798           0.7629963348702764 0.6289927749628274 1.0000   
         H         H         1.0       0.257198801053433   0.7515586144971254  0.6096223850287495 1.0000   
         C         C         1.0       0.006777745822799331          0.8185181438841569 0.806477081020333  1.0000   
         C         C         1.0       0.010101275787036677          0.8101286795698496 0.8401073534578788 1.0000   
         H         H         1.0       0.9803695329064477  0.826400861178559   0.7969954236289979 1.0000   
         H         H         1.0       0.008390094233892363          0.7962792615578385 0.7914345177401737 1.0000   
         H         H         1.0       0.03624704980162363           0.7974610999102825 0.8425787356240372 1.0000   
         H         H         1.0       0.9935011627154732  0.787712337077532   0.8451345915853307 1.0000   
         C         C         1.0       0.12231440946327043           0.013425884720861037         0.8696833095722775 1.0000   
         C         C         1.0       0.15308647925952557           0.03827806124526889          0.8640339111578998 1.0000   
         H         H         1.0       0.10038023968549875           0.030718287335190997         0.8760287299354769 1.0000   
         H         H         1.0       0.12908629901766117           0.9951177159043844 0.888113633810583  1.0000   
         H         H         1.0       0.1563851918052836  0.038304338073018585         0.8404174968009579 1.0000   
         H         H         1.0       0.14482719254367588           0.06590478181448423          0.8672771642683228 1.0000   
         C         C         1.0       0.07109585380852201           0.1878700512714843 0.3799446823915009 1.0000   
         C         C         1.0       0.03995157662364934           0.16596521184904092          0.3856767704067929 1.0000   
         H         H         1.0       0.06967571221788837           0.1957588957746309 0.3569234644175943 1.0000   
         H         H         1.0       0.09365752663658355           0.17073711167707062          0.3811466647052944 1.0000   
         H         H         1.0       0.03093833513393074           0.17332168104094497          0.4075728465469575 1.0000   
         H         H         1.0       0.04662059459998602           0.1393434667725286 0.3884437661006346 1.0000   
         C         C         1.0       0.13462108340571904           0.4090180231111599 0.37803654829784217          1.0000   
         C         C         1.0       0.12725486191060964           0.40130239293226566          0.34484535152964296          1.0000   
         H         H         1.0       0.12326644188347781           0.4348754789706041 0.38256849564522283          1.0000   
         H         H         1.0       0.16424153773986028           0.41540758856070265          0.38036889893589526          1.0000   
         H         H         1.0       0.13890971639819766           0.422458532019609  0.33186339675901644          1.0000   
         H         H         1.0       0.0981488373033399  0.4046014475617763  0.34065696970788206          1.0000   
         C         C         1.0       0.15081428060642976           0.3047260546880018 0.5740223957333068 1.0000   
         C         C         1.0       0.19056102467164032           0.31340908306080845          0.5760212221213581 1.0000   
         H         H         1.0       0.13735391949807166           0.3245262997676201 0.5871750889889127 1.0000   
         H         H         1.0       0.14530535750298296           0.28228530529488294          0.5865936560237389 1.0000   
         H         H         1.0       0.1976378812395606  0.310637962945115   0.5993539350786307 1.0000   
         H         H         1.0       0.1935058082407237  0.34053421792169375           0.5713442960264538 1.0000   
         C         C         1.0       0.9163428184372255  0.21051333268782033           0.5948931572211941 1.0000   
         C         C         1.0       0.9303175479916905  0.1742790797063276  0.5849979249324777 1.0000   
         H         H         1.0       0.9235831616498463  0.21426772476167386           0.6175181131208114 1.0000   
         H         H         1.0       0.8881027886349264  0.20542113983484767           0.5959367379426629 1.0000   
         H         H         1.0       0.9123041145426588  0.15819930023058887           0.5975546790954589 1.0000   
         H         H         1.0       0.9573468812068286  0.17096085939368866           0.593637368254484  1.0000   
         C         C         1.0       0.1900917977469521  0.2548530098674554  0.6518263550883681 1.0000   
         C         C         1.0       0.2248689980527798  0.26693801827961244           0.6399324239013572 1.0000   
         H         H         1.0       0.19063683583384183           0.22694944425015418          0.6534941211051079 1.0000   
         H         H         1.0       0.16781360559999906           0.25919775374709914          0.6361992478170942 1.0000   
         H         H         1.0       0.22616040460267842           0.2944517903776938 0.6333600357815731 1.0000   
         H         H         1.0       0.22750307373158138           0.2526895727792275 0.618559410882038  1.0000   
         C         C         1.0       0.020074716333306375          0.22924934827613394          0.6303896504554553 1.0000   
         C         C         1.0       0.038911055313023635          0.2037927099020974 0.6507062352116041 1.0000   
         H         H         1.0       0.9957551397003882  0.21569190536999877           0.6236624223164469 1.0000   
         H         H         1.0       0.0371930726972074  0.23417860884138358           0.6119807608211038 1.0000   
         H         H         1.0       0.057934786692157125          0.2170607024667681 0.6627695366562752 1.0000   
         H         H         1.0       0.05602251234033884           0.18587637140613014          0.6380344665620986 1.0000   
         C         C         1.0       0.9540083863660634  0.4604649752664358  0.6272100432215411 1.0000   
         C         C         1.0       0.9667206571310157  0.4558503160549027  0.5965945423106329 1.0000   
         H         H         1.0       0.9252876434852441  0.4651165402313727  0.626867460070599  1.0000   
         H         H         1.0       0.9638111723669989  0.4865069301881524  0.6341658556735342 1.0000   
         H         H         1.0       0.995407797776418   0.462080930009699   0.5964034143766228 1.0000   
         H         H         1.0       0.9541835111115718  0.47709992988933764           0.5841935240424437 1.0000   
         C         C         1.0       0.22230479274117929           0.38987317437190017          0.8410862599910434 1.0000   
         C         C         1.0       0.21803824918248588           0.3872764369835558 0.8754246431376361 1.0000   
         H         H         1.0       0.22151108753598472           0.4176775226467063 0.8371296221918245 1.0000   
         H         H         1.0       0.25005430332311857           0.3824077832984    0.8351883043643045 1.0000   
         H         H         1.0       0.19755562142747987           0.40454657879376066          0.8841550828832317 1.0000   
         H         H         1.0       0.24368400211813568           0.39907453976550367          0.885180635842996  1.0000   
         C         C         1.0       0.08339918848806516           0.19570885136850452          0.8302152154090905 1.0000   
         C         C         1.0       0.05164819723767544           0.18312135001918903          0.811015671296196  1.0000   
         H         H         1.0       0.09933303798845206           0.17444932812131547          0.8341393995923486 1.0000   
         H         H         1.0       0.07436852058008303           0.20380404732339982          0.8517487642802128 1.0000   
         H         H         1.0       0.05679510119025921           0.1571729802626866 0.8010684585909064 1.0000   
         H         H         1.0       0.05153847619021601           0.19758493426003515          0.7904493531232888 1.0000   
         C         C         1.0       0.3442656762603768  0.3768614138908461  0.7773335999297656 1.0000   
         C         C         1.0       0.36303366733329395           0.34715719926987876          0.7934786299361396 1.0000   
         H         H         1.0       0.3354967297622265  0.3966088153581859  0.7917205642982511 1.0000   
         H         H         1.0       0.3193248354168005  0.36687401922428403           0.7676007198366528 1.0000   
         H         H         1.0       0.3448150850255446  0.34611073113610963           0.81257200069065   1.0000   
         H         H         1.0       0.38898794268026876           0.3539681465057019 0.8040323066007298 1.0000   
         C         C         1.0       0.3087948680597137  0.3135962407715262  0.37496933327268855          1.0000   
         C         C         1.0       0.3056334256023789  0.27582735618124143           0.38517292619178417          1.0000   
         H         H         1.0       0.2805764720790123  0.32322972262948746           0.3783113575422588 1.0000   
         H         H         1.0       0.3118864993173484  0.3130861771264558  0.35149254613308845          1.0000   
         H         H         1.0       0.32860442684991387           0.2607224219513715 0.3766392673950843 1.0000   
         H         H         1.0       0.2850056462081513  0.26209791648608316           0.37378156247543837          1.0000   
         C         C         1.0       0.41234212834658973           0.38581993479860077          0.5562010517881373 1.0000   
         C         C         1.0       0.4009680793040366  0.4219883798785098  0.566890824907963  1.0000   
         H         H         1.0       0.392213506881889   0.3684577591076119  0.5627462738367616 1.0000   
         H         H         1.0       0.43409473852346775           0.37439092097070437          0.5693994524289844 1.0000   
         H         H         1.0       0.3749289690581775  0.42558467658828136           0.5589633592779885 1.0000   
         H         H         1.0       0.4134329181355489  0.44293779407723194           0.555999261599206  1.0000   
         C         C         1.0       0.30952153049302805           0.8687953911725539 0.8530510647969304 1.0000   
         C         C         1.0       0.29251530642300644           0.9022650250270402 0.8438211066698434 1.0000   
         H         H         1.0       0.3253565562078178  0.8724383318420473  0.8734090162943965 1.0000   
         H         H         1.0       0.28852034669411175           0.8508439715325141 0.855624570531616  1.0000   
         H         H         1.0       0.3117315834719948  0.9236852361777529  0.8480399844731891 1.0000   
         H         H         1.0       0.2705671904962656  0.9102194042579536  0.8569392276302215 1.0000   
         C         C         1.0       0.42569259698042505           0.6247669508501311 0.6971996225401119 1.0000   
         C         C         1.0       0.3953007619557622  0.6001277216567377  0.6847932422712228 1.0000   
         H         H         1.0       0.4182462106889258  0.6507997336124608  0.6904782091126359 1.0000   
         H         H         1.0       0.4522316846211752  0.6205849964292286  0.6876601659664487 1.0000   
         H         H         1.0       0.3891394390358601  0.6047566900481489  0.6602246566459746 1.0000   
         H         H         1.0       0.3692985494933216  0.6072515208113802  0.6929288428528277 1.0000   
         C         C         1.0       0.31215550997395924           0.883635162761731  0.43349264252726133          1.0000   
         C         C         1.0       0.3499123192599013  0.8971557094017751  0.4425653789283627 1.0000   
         H         H         1.0       0.3143052971814496  0.8594074071869712  0.4194481062783111 1.0000   
         H         H         1.0       0.3021695195979797  0.9022969837912251  0.4173176278819526 1.0000   
         H         H         1.0       0.34715828896255685           0.9212867832113261 0.45518558839573603          1.0000   
         H         H         1.0       0.36159455453174644           0.9039010013551957 0.4211545528455998 1.0000   
         C         C         1.0       0.35544108331625784           0.5557360077023381 0.5098262239355208 1.0000   
         C         C         1.0       0.3359070956949676  0.5263811585297152  0.49366166717195675          1.0000   
         H         H         1.0       0.38064809259275467           0.5466362254383398 0.519571679718455  1.0000   
         H         H         1.0       0.3392068384091731  0.5629075886020928  0.5285200868420384 1.0000   
         H         H         1.0       0.31449091060063145           0.5355527979913378 0.4789095777029179 1.0000   
         H         H         1.0       0.32090069688967665           0.5092246575665528 0.509720898093816  1.0000   
         C         C         1.0       0.39531883241049864           0.764116171108136  0.6314477381213767 1.0000   
         C         C         1.0       0.36624385512714097           0.7809990628662692 0.6497901440762492 1.0000   
         H         H         1.0       0.39290366142684074           0.7375095787226561 0.6328041762544795 1.0000   
         H         H         1.0       0.422289771798575   0.7704718670224495  0.6401025120815571 1.0000   
         H         H         1.0       0.3398095505188736  0.7672147286718756  0.6508499089362583 1.0000   
         H         H         1.0       0.36105165995291577           0.8053853886033332 0.6397537167988292 1.0000   
         C         C         1.0       0.9010380062446172  0.8735024301907671  0.7969803778617256 1.0000   
         C         C         1.0       0.8923462713076945  0.9099093874365932  0.8042578083382348 1.0000   
         H         H         1.0       0.9277679128607474  0.8723852582276439  0.7897566277694978 1.0000   
         H         H         1.0       0.9006413552738006  0.8605192559129617  0.8181237462059693 1.0000   
         H         H         1.0       0.9074282940006295  0.9178004560838456  0.8243253714164217 1.0000   
         H         H         1.0       0.8646308486552675  0.9088435916855233  0.8099287165467082 1.0000   
         C         C         1.0       0.56003586146145    0.8451392266005495  0.7059883148134477 1.0000   
         C         C         1.0       0.5287025839717334  0.8661209969387865  0.7174576088176481 1.0000   
         H         H         1.0       0.5675825799719724  0.8561559078144345  0.6849613207217773 1.0000   
         H         H         1.0       0.5507076512030263  0.8188828489500392  0.7006583954951617 1.0000   
         H         H         1.0       0.5126139120483763  0.8768115655707551  0.6992037709923059 1.0000   
         H         H         1.0       0.5382580511694228  0.8889279761555327  0.7282478314379845 1.0000   
         C         C         1.0       0.7667624314629006  0.9730890622799511  0.38409313892996416          1.0000   
         C         C         1.0       0.7990314049412618  0.9929505528988215  0.39521613928381677          1.0000   
         H         H         1.0       0.7668397366357801  0.9695980111433252  0.3613867052198065 1.0000   
         H         H         1.0       0.7435378839502111  0.9899007757811299  0.3878478040693247 1.0000   
         H         H         1.0       0.8235186938262686  0.9868008261375307  0.3826219121722578 1.0000   
         H         H         1.0       0.7952661775275949  0.020383037992942832         0.39086750193119124          1.0000   
         C         C         1.0       0.5802760652388644  0.7343535996580156  0.5027464889033587 1.0000   
         C         C         1.0       0.5729334148653394  0.76890962088268    0.517421524377562  1.0000   
         H         H         1.0       0.5625931611184452  0.7136970409425514  0.5102767410001721 1.0000   
         H         H         1.0       0.6042072459517509  0.7279329866686105  0.5143472134420181 1.0000   
         H         H         1.0       0.5875068719567432  0.7876445821051465  0.5069323824588645 1.0000   
         H         H         1.0       0.5808060992326914  0.7710796973323678  0.5407531414878066 1.0000   
         C         C         1.0       0.7660293404780097  0.8437532463413039  0.571766945854881  1.0000   
         C         C         1.0       0.7914751016077253  0.866671480102471   0.5877045154003471 1.0000   
         H         H         1.0       0.7413667017849197  0.8499629854519265  0.5802803868638667 1.0000   
         H         H         1.0       0.7727609898734473  0.8162653130054279  0.5740004981087793 1.0000   
         H         H         1.0       0.7804807347711379  0.8936549348119653  0.5879187527738069 1.0000   
         H         H         1.0       0.8181268476345523  0.8654560665518587  0.5752489125325345 1.0000   
         C         C         1.0       0.8458136848721362  0.3477224287538105  0.7547937708629234 1.0000   
         C         C         1.0       0.8775585375512727  0.3502529466901229  0.7777389595100718 1.0000   
         H         H         1.0       0.8234480212659526  0.3382294532726487  0.7667910566927599 1.0000   
         H         H         1.0       0.8491682195787658  0.32717195262927445           0.7381858981310607 1.0000   
         H         H         1.0       0.8768363269064632  0.330719150109269   0.7957772102146569 1.0000   
         H         H         1.0       0.8764036697787532  0.3726769649376579  0.789141693080427  1.0000   
         C         C         1.0       0.7782518800200813  0.6670044115417632  0.724969558624767  1.0000   
         C         C         1.0       0.8042238756500114  0.6675297776818262  0.7007651808697374 1.0000   
         H         H         1.0       0.7823925835351021  0.6887019812585986  0.7400907665170225 1.0000   
         H         H         1.0       0.7509908720945084  0.66936146919305    0.7179754481361363 1.0000   
         H         H         1.0       0.7928400296795457  0.6522540471621487  0.6820731963587504 1.0000   
         H         H         1.0       0.8282178706180122  0.6533573833460107  0.7057646328477023 1.0000   
         C         C         1.0       0.6292862402249988  0.45676869569526785           0.6395261190280154 1.0000   
         C         C         1.0       0.6579321035258059  0.4845482155849393  0.6328553823115838 1.0000   
         H         H         1.0       0.6392547599982344  0.43141921302160696           0.6335005996784415 1.0000   
         H         H         1.0       0.6037348535862387  0.4597990309552764  0.6267269546452446 1.0000   
         H         H         1.0       0.6489371835237819  0.5099840213891635  0.6399760895457604 1.0000   
         H         H         1.0       0.6613393433353155  0.4836735059093051  0.6086092836501129 1.0000   
         C         C         1.0       0.8472397161521473  0.32512864396599567           0.42481877819554587          1.0000   
         C         C         1.0       0.8087512409221004  0.32531605215014253           0.4354590030402177 1.0000   
         H         H         1.0       0.8542687418449043  0.29985975126647973           0.41511508410016906          1.0000   
         H         H         1.0       0.8530278320452197  0.3458671076927336  0.408533253570198  1.0000   
         H         H         1.0       0.8064197769042675  0.30449390969382073           0.45100001533133416          1.0000   
         H         H         1.0       0.787250711442691   0.31776540253847196           0.42015047393075006          1.0000   
         C         C         1.0       0.8544734383734239  0.7025572851235936  0.44722562657200277          1.0000   
         C         C         1.0       0.8511356488757805  0.7324763222956754  0.4243375155208531 1.0000   
         H         H         1.0       0.8378252801756306  0.7060372756241681  0.4666381939177061 1.0000   
         H         H         1.0       0.8833894016921013  0.7007921592922145  0.45449440003669184          1.0000   
         H         H         1.0       0.839721454062159   0.7246031910027312  0.4030425696991947 1.0000   
         H         H         1.0       0.877923389623288   0.7417522691894054  0.4188271867227628 1.0000   
         C         C         1.0       0.606610916515946   0.47429761579753515           0.49072652295020175          1.0000   
         C         C         1.0       0.6341520003397301  0.4506689055308277  0.5054571747243257 1.0000   
         H         H         1.0       0.6168699091169432  0.49958611828231736           0.48556844738404376          1.0000   
         H         H         1.0       0.5868249013316887  0.48082097272299945           0.5060813144321826 1.0000   
         H         H         1.0       0.626879358270932   0.42415207243038683           0.5050742401790498 1.0000   
         H         H         1.0       0.6324412933572934  0.45907449681509277           0.5275464901658262 1.0000   
         C         C         1.0       0.8807667417746886  0.5183817202179254  0.5696500087057054 1.0000   
         C         C         1.0       0.8708646733181348  0.5369359509443891  0.5978700963598914 1.0000   
         H         H         1.0       0.8947345527012126  0.5362829515345113  0.5553081679690335 1.0000   
         H         H         1.0       0.9023271577912987  0.5011581418304853  0.5757007477025151 1.0000   
         H         H         1.0       0.8956440498758239  0.5454275959584467  0.6090889933454973 1.0000   
         H         H         1.0       0.8593913981983393  0.5623352590094075  0.5904414454393585 1.0000   
         C         C         1.0       0.4154906078011478  0.32630943398788087           0.9156348386420186 1.0000   
         C         C         1.0       0.42712004842629403           0.29157042824692003          0.9246117456438664 1.0000   
         H         H         1.0       0.38583947092321746           0.32354121986560325          0.9142755975049183 1.0000   
         H         H         1.0       0.4277695401937989  0.3303519475201366  0.8945933116268951 1.0000   
         H         H         1.0       0.45481958136837974           0.2925264586092833 0.9303702678304238 1.0000   
         H         H         1.0       0.4270944996881978  0.27579381249816914           0.9050588325029472 1.0000   
         C         C         1.0       0.3273800453577011  0.5854851238117478  0.8831790565291952 1.0000   
         C         C         1.0       0.32200422504359383           0.5879510037988    0.915507099468753  1.0000   
         H         H         1.0       0.30215368638891593           0.5927703318505372 0.871395577466712  1.0000   
         H         H         1.0       0.32953557229556096           0.5576025535032385 0.876647778058398  1.0000   
         H         H         1.0       0.3000032369045345  0.5729102711003141  0.9213602717903041 1.0000   
         H         H         1.0       0.3132353174611343  0.615029611757914   0.9213079733554271 1.0000   
         C         C         1.0       0.5052602146872975  0.5364327263489018  0.8540658348912605 1.0000   
         C         C         1.0       0.5448896894526629  0.5220719261392752  0.8510690292955287 1.0000   
         H         H         1.0       0.5011214640299875  0.5604552598661968  0.8433686588832232 1.0000   
         H         H         1.0       0.48733556740500095           0.5165301532624785 0.8438310478381812 1.0000   
         H         H         1.0       0.5515506135778695  0.5079073728313057  0.8713718925665324 1.0000   
         H         H         1.0       0.5633583812424415  0.5435586304217879  0.853022932583926  1.0000   
         C         C         1.0       0.4322096858624792  0.3719884334281911  0.33329752469307006          1.0000   
         C         C         1.0       0.4372541262361334  0.33288196392356595           0.32965168996157596          1.0000   
         H         H         1.0       0.45464239285428526           0.38109712456753914          0.34614473641636234          1.0000   
         H         H         1.0       0.4084350610524946  0.3768336076854773  0.3468729355658111 1.0000   
         H         H         1.0       0.44183488601050674           0.31966831270003176          0.35074574680659093          1.0000   
         H         H         1.0       0.4607548348900591  0.32823953701288777           0.3179575194559036 1.0000   
         C         C         1.0       0.34645542930038725           0.3687914134757051 0.13049635113933392          1.0000   
         C         C         1.0       0.37989571868030475           0.35033801762832184          0.11883261492456627          1.0000   
         H         H         1.0       0.33341647437214816           0.38574469932161054          0.11505502956779778          1.0000   
         H         H         1.0       0.3274193649340918  0.3479506420014298  0.13545566282280277          1.0000   
         H         H         1.0       0.4013516375125097  0.3488154059785535  0.13519873022805992          1.0000   
         H         H         1.0       0.3719480030290821  0.3239903381296535  0.11452053921879278          1.0000   
         C         C         1.0       0.29081847779073183           0.6670553394964497 0.3337794468421307 1.0000   
         C         C         1.0       0.30673665084042967           0.6750288036670133 0.3051652214733023 1.0000   
         H         H         1.0       0.28004429561115946           0.6401561808775771 0.33391759510754077          1.0000   
         H         H         1.0       0.2663073221288392  0.6812926241962761  0.33466952983705545          1.0000   
         H         H         1.0       0.3187103251063536  0.7027638331696426  0.308063722325356  1.0000   
         H         H         1.0       0.28346327219101786           0.6799701628094145 0.2900072430219334 1.0000   
         C         C         1.0       0.5580000585395076  0.553549000458942   0.2997134826824808 1.0000   
         C         C         1.0       0.5472872547158294  0.5874884990607591  0.3138930663354431 1.0000   
         H         H         1.0       0.5482792016284562  0.5517240172033497  0.2764947192959539 1.0000   
         H         H         1.0       0.5850394845591028  0.5536315396791014  0.2989666371058156 1.0000   
         H         H         1.0       0.5688995079524943  0.6078358760905856  0.31282857596404184          1.0000   
         H         H         1.0       0.5420468900212748  0.5846829526403778  0.3371654850521009 1.0000   
         C         C         1.0       0.9175180697645954  0.4256957671178092  0.9303319975280007 1.0000   
         C         C         1.0       0.9400158624669862  0.4247897859625017  0.9576982775386429 1.0000   
         H         H         1.0       0.9270382434798585  0.40705716046155355           0.9139490665508668 1.0000   
         H         H         1.0       0.9160920087391868  0.45058380012417426           0.920380963210734  1.0000   
         H         H         1.0       0.9272716840155248  0.4415937803347744  0.973687325816589  1.0000   
         H         H         1.0       0.9644196830308256  0.43901857242535614           0.9524328772111909 1.0000   
         C         C         1.0       0.6469314428255101  0.5160372060347439  0.8674889052092664 1.0000   
         C         C         1.0       0.6763534207632973  0.5344843801603282  0.8828015080077306 1.0000   
         H         H         1.0       0.6479479597238391  0.5205472435791586  0.8445945432551409 1.0000   
         H         H         1.0       0.6231216083493236  0.527690385985696   0.8741803672227689 1.0000   
         H         H         1.0       0.6644644909094615  0.5587801808196788  0.8905218600426953 1.0000   
         H         H         1.0       0.6844799485702224  0.5188662784124463  0.9027093679466163 1.0000   
         C         C         1.0       0.6002185401160807  0.2847856528082608  0.8242496047429708 1.0000   
         C         C         1.0       0.6052677509030114  0.29458897370662074           0.7917442629222637 1.0000   
         H         H         1.0       0.612631733203433   0.2592059404910137  0.8287353025456975 1.0000   
         H         H         1.0       0.5732060697135457  0.28066203369840226           0.8282805327875351 1.0000   
         H         H         1.0       0.6325282165396289  0.29350301911119825           0.7851581247947479 1.0000   
         H         H         1.0       0.5915775354157968  0.2775230361553586  0.7766055775480598 1.0000   
         C         C         1.0       0.6229277069966516  0.35322385825047037           0.035294062553522076         1.0000   
         C         C         1.0       0.589462519512637   0.33226135437297794           0.04319513247469642          1.0000   
         H         H         1.0       0.644873743813149   0.3390037457501042  0.044882036344048304         1.0000   
         H         H         1.0       0.624407068956331   0.3774162868903368  0.047305937230569084         1.0000   
         H         H         1.0       0.5896027043002744  0.3289439914098558  0.0662097525170624 1.0000   
         H         H         1.0       0.5933177543979896  0.3065471587587894  0.0338113969438083 1.0000   
         C         C         1.0       0.9346121797546094  0.4077141563264289  0.24201433218695464          1.0000   
         C         C         1.0       0.9002868231409619  0.40693937154414556           0.25967568456261614          1.0000   
         H         H         1.0       0.9581934963440266  0.4175985179225284  0.25494336198222745          1.0000   
         H         H         1.0       0.9338949842373501  0.4266799584442609  0.22511202392979573          1.0000   
         H         H         1.0       0.8994565382373145  0.4303714009408667  0.27432077447702025          1.0000   
         H         H         1.0       0.8975576290517777  0.388027099131315   0.2773203491411879 1.0000   
         C         C         1.0       0.561072584294349   0.4268551725804568  0.1303922878238305 1.0000   
         C         C         1.0       0.5240435376251602  0.40850250658336984           0.1314794584577727 1.0000   
         H         H         1.0       0.5755128320924627  0.4157759316486269  0.11213159435380544          1.0000   
         H         H         1.0       0.557691416616837   0.4541059574646838  0.12339576783804915          1.0000   
         H         H         1.0       0.5316423164948395  0.3814379754920902  0.130639456250592  1.0000   
         H         H         1.0       0.5101275727792112  0.4122478185228442  0.1100475073672406 1.0000   
         C         C         1.0       0.8205007335389715  0.2760547473039225  0.06648465687242133          1.0000   
         C         C         1.0       0.7922133078137773  0.2812031693526589  0.0899974190292463 1.0000   
         H         H         1.0       0.8256423950279387  0.24952722541477135           0.05966242879197691          1.0000   
         H         H         1.0       0.8457666019918021  0.28306554324023875           0.07599941899045182          1.0000   
         H         H         1.0       0.7949246293264598  0.2587746032179133  0.10445025253498623          1.0000   
         H         H         1.0       0.7666397169396258  0.27907908417814387           0.07969211868865811          1.0000   
         C         C         1.0       0.6611442200976368  0.5280718058490618  0.3166696654831832 1.0000   
         C         C         1.0       0.6895944041067693  0.553535027021595   0.3089664465274921 1.0000   
         H         H         1.0       0.636632726512667   0.5415752909518985  0.3148795335050019 1.0000   
         H         H         1.0       0.6607052205614321  0.5181718280315848  0.33868743443523397          1.0000   
         H         H         1.0       0.7027257383903899  0.5435047057452725  0.2890445587025243 1.0000   
         H         H         1.0       0.6776804981774697  0.5787185344400859  0.30789013094354234          1.0000   
         C         C         1.0       0.6086141598490933  0.3097259796604789  0.3367643691064106 1.0000   
         C         C         1.0       0.608114314407802   0.29755958490046425           0.3051527031930438 1.0000   
         H         H         1.0       0.6372083961754988  0.3129580784156325  0.3425198218530609 1.0000   
         H         H         1.0       0.5980709484190758  0.29306745821997454           0.35218624771566853          1.0000   
         H         H         1.0       0.579698298209396   0.2949568246157748  0.2970430180534625 1.0000   
         H         H         1.0       0.6181332480761152  0.2716465158261845  0.30104154734108385          1.0000   
         C         C         1.0       0.7822040079189891  0.8160722389971361  0.8995270005069309 1.0000   
         C         C         1.0       0.7667187815990323  0.85229715635112    0.8997734992037879 1.0000   
         H         H         1.0       0.8086066765522627  0.8157592988245995  0.887543941200865  1.0000   
         H         H         1.0       0.7642667429913929  0.8001531027066366  0.8858041651872861 1.0000   
         H         H         1.0       0.7404442507921759  0.8482583535127396  0.9073870592731167 1.0000   
         H         H         1.0       0.7649540628954714  0.8663080246468252  0.8781617721116417 1.0000   
         C         C         1.0       0.704333682960687   0.681822573307778   0.8593934995364785 1.0000   
         C         C         1.0       0.7074748026905783  0.7192452664142518  0.8705644075477765 1.0000   
         H         H         1.0       0.675613300345193   0.6773008864914076  0.8582625681469657 1.0000   
         H         H         1.0       0.7128207899031029  0.6768435216409453  0.8369187676345115 1.0000   
         H         H         1.0       0.7328643369780693  0.7251946087077149  0.8800384349651171 1.0000   
         H         H         1.0       0.689248325980032   0.7244038265150823  0.8889335839183988 1.0000   
         C         C         1.0       0.8924418142805567  0.5357565860128173  0.921201655341217  1.0000   
         C         C         1.0       0.905653191287691   0.5589786072879002  0.8974881834409593 1.0000   
         H         H         1.0       0.9143799543523286  0.5307789468393606  0.9369626227114956 1.0000   
         H         H         1.0       0.8904730797026474  0.5097028899774411  0.909950163323409  1.0000   
         H         H         1.0       0.932322095092274   0.5541869554217258  0.8918591779843086 1.0000   
         H         H         1.0       0.9075347250265555  0.5868524201019597  0.9047758431354035 1.0000   
         C         C         1.0       0.6862441090492898  0.5038739483375176  0.0243358943851133 1.0000   
         C         C         1.0       0.7052515448205876  0.4802793305431842  0.04493022849197392          1.0000   
         H         H         1.0       0.6657527252613705  0.5177186066371345  0.03682900396039401          1.0000   
         H         H         1.0       0.6699884991236077  0.4861642103657231  0.008974172515337386         1.0000   
         H         H         1.0       0.6861662576301056  0.4702798090843531  0.05791980784618511          1.0000   
         H         H         1.0       0.7229490567463087  0.495267431205633   0.05973025596921078          1.0000   
         C         C         1.0       0.7162552242084155  0.8621594602825883  0.30005348329924636          1.0000   
         C         C         1.0       0.7511468350791058  0.8654763057828945  0.3163138428640003 1.0000   
         H         H         1.0       0.7024242328713578  0.8848332559055142  0.29606745308048366          1.0000   
         H         H         1.0       0.6999182713395102  0.8469880982699944  0.3149458110905027 1.0000   
         H         H         1.0       0.7470587535169667  0.8787834238541745  0.33652414651339563          1.0000   
         H         H         1.0       0.7593090412363828  0.8403199905028537  0.32144715038678984          1.0000   
         C         C         1.0       0.7611709003802946  0.5523382402897173  0.09863957459057086          1.0000   
         C         C         1.0       0.7944345235760027  0.5294047474236543  0.09942982631756118          1.0000   
         H         H         1.0       0.7368348395786313  0.5396786708632614  0.09298385411208981          1.0000   
         H         H         1.0       0.7674406302048038  0.5699348689484935  0.07957599885244471          1.0000   
         H         H         1.0       0.8181686636231177  0.5422323878330481  0.10493163561464951          1.0000   
         H         H         1.0       0.7951472513884773  0.5221351874243843  0.07682800389394662          1.0000   
         C         C         1.0       0.8646456687993154  0.7754405902444789  0.1301795008072562 1.0000   
         C         C         1.0       0.8781260749152238  0.7879261577820601  0.1010172115258763 1.0000   
         H         H         1.0       0.8868495663088765  0.7791042578026586  0.1458652998023086 1.0000   
         H         H         1.0       0.8641426050208274  0.7474165712731526  0.13034565901231213          1.0000   
         H         H         1.0       0.9056851312400341  0.7830042545899544  0.09878385348819103          1.0000   
         H         H         1.0       0.8782674058200818  0.816845282541396   0.102900221881629  1.0000   
         C         C         1.0       0.6479261247211996  0.6671184435173937  0.2818615337290249 1.0000   
         C         C         1.0       0.6520733428852876  0.7064004661504216  0.2842992192621619 1.0000   
         H         H         1.0       0.6202987022060639  0.6602592027750293  0.2756920206866592 1.0000   
         H         H         1.0       0.6483108764906585  0.652915471110463   0.30347065119100414          1.0000   
         H         H         1.0       0.6358601769468233  0.7148700818660858  0.26565127261798444          1.0000   
         H         H         1.0       0.6786515776039271  0.7152645398166629  0.27849240375958495          1.0000   
         C         C         1.0       0.891326639576212   0.5676870415112913  0.25970601333554766          1.0000   
         C         C         1.0       0.8897269155290152  0.5393948516064629  0.2848448443851727 1.0000   
         H         H         1.0       0.9031978653531024  0.5539172548298146  0.2406256958637434 1.0000   
         H         H         1.0       0.9100920529650028  0.5883786360727763  0.2651283507256154 1.0000   
         H         H         1.0       0.8720701883204632  0.519464929581337   0.27716957657118513          1.0000   
         H         H         1.0       0.9139492034762738  0.5241190415966014  0.2905944208350898 1.0000   
         C         C         1.0       0.33661237696559243           0.7508848028618924 0.9065057128037337 1.0000   
         C         C         1.0       0.31344664778884884           0.7828365234882037 0.9019464948212299 1.0000   
         H         H         1.0       0.34516155555253036           0.7441377437771891 0.8845882839028353 1.0000   
         H         H         1.0       0.32076219357605174           0.7284488857848208 0.9100453022197541 1.0000   
         H         H         1.0       0.2937548696548214  0.7761147430540845  0.884371328016521  1.0000   
         H         H         1.0       0.33049247551256233           0.801211756742702  0.8904144282815091 1.0000   
         C         C         1.0       0.6696678302742295  0.9125925295696713  0.9132181092370464 1.0000   
         C         C         1.0       0.6647810590576522  0.929857693759248   0.8827429393984385 1.0000   
         H         H         1.0       0.6969508397323618  0.9054280478735578  0.9161645787332627 1.0000   
         H         H         1.0       0.6659969345097002  0.9333668481357607  0.9283155884440489 1.0000   
         H         H         1.0       0.684697048423506   0.9502483366617558  0.8805901703660227 1.0000   
         H         H         1.0       0.6391409691875828  0.9445215135096275  0.8826099722961225 1.0000   
         C         C         1.0       0.5997908733043947  0.6757769025045206  0.8734401577679515 1.0000   
         C         C         1.0       0.5719028132856195  0.6531294973404942  0.886401123388078  1.0000   
         H         H         1.0       0.5913420506975197  0.67985491692935    0.8504356686467286 1.0000   
         H         H         1.0       0.6256059653771064  0.6608599021884977  0.8719960621524329 1.0000   
         H         H         1.0       0.5836983833877109  0.6283447359046577  0.888700738030997  1.0000   
         H         H         1.0       0.5687990627500915  0.6602847622473879  0.9096484577659607 1.0000   
         C         C         1.0       0.6262753811937026  0.7592833308338849  0.07426093258831323          1.0000   
         C         C         1.0       0.6585345894372554  0.7778251920713858  0.08583166487468041          1.0000   
         H         H         1.0       0.6286342350114139  0.7309303881219207  0.07733947009597975          1.0000   
         H         H         1.0       0.6044669279696018  0.7695302519778582  0.08755956166387047          1.0000   
         H         H         1.0       0.6644386594552643  0.7671614507238947  0.10773291822201236          1.0000   
         H         H         1.0       0.6533970553847389  0.80618508552808    0.09057346655205345          1.0000   
         C         C         1.0       0.5095021481315462  0.6300603763776172  0.0639325930580017 1.0000   
         C         C         1.0       0.4871402295539985  0.6584640890879063  0.0760437130223226 1.0000   
         H         H         1.0       0.5239025953588275  0.6110316980867793  0.07977563591739245          1.0000   
         H         H         1.0       0.5330475311731374  0.6427633283123891  0.05398538585146517          1.0000   
         H         H         1.0       0.5026122973492588  0.6704345019620915  0.09510572489425273          1.0000   
         H         H         1.0       0.46264788906711674           0.648521335773824  0.08388313577239348          1.0000   
         C         C         1.0       0.24073374106394327           0.7329787435991731 0.24485226665625975          1.0000   
         C         C         1.0       0.24726425954347456           0.7485645611572259 0.27590497419279236          1.0000   
         H         H         1.0       0.21645525805683147           0.7437396255101851 0.23480483107363936          1.0000   
         H         H         1.0       0.23579822498762706           0.704243731098471  0.24572353914291428          1.0000   
         H         H         1.0       0.27386843652074655           0.7441277536948625 0.28497653845668447          1.0000   
         H         H         1.0       0.2303165790870109  0.7358293226177913  0.29166767033402047          1.0000   
         C         C         1.0       0.5623159447458327  0.787766083858742   0.14709135698686548          1.0000   
         C         C         1.0       0.5964990866145861  0.8114572012581435  0.14585957487268558          1.0000   
         H         H         1.0       0.5692694356098508  0.7623657447084676  0.13965402466187643          1.0000   
         H         H         1.0       0.5451994181915572  0.7970077701637537  0.12881074444494867          1.0000   
         H         H         1.0       0.5980738302825634  0.81387135817379    0.1218050909103745 1.0000   
         H         H         1.0       0.5899394553488757  0.8364450705794138  0.15484147126891745          1.0000   
         C         C         1.0       0.42039899025219113           0.6076694192808366 0.12279602331064617          1.0000   
         C         C         1.0       0.39391994083427545           0.6295673336109295 0.10642037506457293          1.0000   
         H         H         1.0       0.44750994474238864           0.6127800166837222 0.11704326911130629          1.0000   
         H         H         1.0       0.41801710228856703           0.5807490758601965 0.11456934551964364          1.0000   
         H         H         1.0       0.3685363049612666  0.6129572373246206  0.1054473730490559 1.0000   
         H         H         1.0       0.4020031638619886  0.6346511651669009  0.08308681425127218          1.0000   
         C         C         1.0       0.35901598170688215           0.8724184763977778 0.0872375219207433 1.0000   
         C         C         1.0       0.3895958286514022  0.8748355501173516  0.06560226062856933          1.0000   
         H         H         1.0       0.3343814119779642  0.8763994860386792  0.07499811065700857          1.0000   
         H         H         1.0       0.3558362475463912  0.8958194471196568  0.10006638348180355          1.0000   
         H         H         1.0       0.41240536071718653           0.887612298703257  0.0779211580357213 1.0000   
         H         H         1.0       0.3818358762728685  0.8964621172922375  0.05135515517738277          1.0000   
         C         C         1.0       0.48740113397741935           0.8909497959800995 0.33642523154493664          1.0000   
         C         C         1.0       0.4922457877851046  0.8740037608861906  0.36689489107764445          1.0000   
         H         H         1.0       0.46292338408960276           0.907736529669266  0.33395790010679516          1.0000   
         H         H         1.0       0.5105070467799988  0.9074522580445077  0.33116719334928596          1.0000   
         H         H         1.0       0.46834620238603647           0.8593527873614559 0.3709704129994752 1.0000   
         H         H         1.0       0.49251656380233627           0.8975743692525139 0.3818373245881327 1.0000   
         C         C         1.0       0.5298298507480879  0.685303081845421   0.34767478794591355          1.0000   
         C         C         1.0       0.5099785521328887  0.6532850993612365  0.35938008564098595          1.0000   
         H         H         1.0       0.5552813981814686  0.6747371797707966  0.34273866082283067          1.0000   
         H         H         1.0       0.5373358018193041  0.7027891445756462  0.3669770590318895 1.0000   
         H         H         1.0       0.5299153906440035  0.6367286074996271  0.36953509824888725          1.0000   
         H         H         1.0       0.5004305703216189  0.6368091401242839  0.34163344112361205          1.0000

