data_0
_chemical_formula_structural 
                                        C6H4C38H24C6H4C38H24C6H4C38H24C6H4C38H24C6H4C38H24C6H4C38H24C6H4C38H24C6H4C38H24C6H4C38H24C6H4C38H24C6H4C38H24C6H4C38H24C6H4C38H24C6H4C38H24C6H4C38H24C6H4C38H24C6H4C38H24C6H4C38H24C6H4C38H24C6H4C38H24C6H4C38H24C6H4C38H24C6H4C38H24C6H4C38H24C6H4C38H24C6H4C38H24C6H4C38H24C6H4C38H24C6H4C38H24C6H4C38H24C6H4C38H24C6H4C38H24C2H4C2H4C2H4C2H4C2H4C2H4C2H4C2H4C2H4C2H4C2H4C2H4C2H4C2H4C2H4C2H4C2H4C2H4C2H4C2H4C2H4C2H4C2H4C2H4C2H4C2H4C2H4C2H4C2H4C2H4C2H4C2H4C2H4C2H4C2H4C2H4C2H4C2H4C2H4C2H4C2H4C2H4C2H4C2H4C2H4C2H4C2H4C2H4C2H4C2H4C2H4C2H4C2H4C2H4C2H4C2H4C2H4C2H4C2H4C2H4C2H4C2H4C2H4C2H4C2H4C2H4C2H4C2H4C2H4C2H4C2H4C2H4C2H4C2H4C2H4C2H4C2H4C2H4C2H4C2H4C2H4C2H4C2H4C2H4C2H4C2H4C2H4C2H4C2H4C2H4C2H4C2H4C2H4C2H4C2H4C2H4
_chemical_formula_sum                   'C1600 H1280'
_cell_length_a                          39.5326112034317
_cell_length_b                          38.78098169863562
_cell_length_c                          46.544152705328415
_cell_angle_alpha                       90.336698255649
_cell_angle_beta                        89.33526337523374
_cell_angle_gamma                       89.88279426689961
_space_group_name_H-M_alt               'P 1'
_space_group_IT_number                  1
loop_
  _space_group_symop_operation_xyz
         'x, y, z' 
loop_
  _atom_site_type_symbol
  _atom_site_label
  _atom_site_symmetry_multiplicity
  _atom_site_fract_x
  _atom_site_fract_y
  _atom_site_fract_z
  _atom_site_occupancy
         C         C         1.0       0.4975179729307342  0.8329765910445247  0.37110135382499443          1.0000   
         C         C         1.0       0.5185104167888879  0.8413729055846986  0.3487285575362273 1.0000   
         C         C         1.0       0.5292575622884883  0.8149938502909787  0.32937454612985295          1.0000   
         C         C         1.0       0.5192462682443706  0.7807362310842143  0.3319631225256649 1.0000   
         C         C         1.0       0.4972092588768742  0.7747082315202668  0.3552046123199754 1.0000   
         C         C         1.0       0.4888986488099452  0.7990163154778486  0.3756880407112922 1.0000   
         H         H         1.0       0.5289853011130824  0.8669686598995703  0.3449679974976943 1.0000   
         H         H         1.0       0.5440999929203305  0.8204677631838131  0.3107445031713938 1.0000   
         H         H         1.0       0.4905693629541401  0.747997954145399   0.3569013820478375 1.0000   
         H         H         1.0       0.4787503104797111  0.7899964338819678  0.39592298678072024          1.0000   
         C         C         1.0       0.5448537255141359  0.7110185499383899  0.3541288296553262 1.0000   
         C         C         1.0       0.5321557991834545  0.7102297468845177  0.3259083407979116 1.0000   
         C         C         1.0       0.5268673292606494  0.6797430818418349  0.3132940747017154 1.0000   
         C         C         1.0       0.5328938243247366  0.6495997565044299  0.3262791568255338 1.0000   
         C         C         1.0       0.5448276470474225  0.6504945729256744  0.3535795988062865 1.0000   
         C         C         1.0       0.5525461020516198  0.6811475766251195  0.3676208437943769 1.0000   
         C         C         1.0       0.5288505001772955  0.748288408628616   0.3108388211546528 1.0000   
         C         C         1.0       0.5667939682444013  0.7528473217501176  0.2979979875900619 1.0000   
         C         C         1.0       0.5724192197915656  0.7362330161339234  0.2725507593326659 1.0000   
         C         C         1.0       0.6035128776123327  0.7342825636003463  0.25855947488139636          1.0000   
         C         C         1.0       0.6306084509909365  0.748872645704825   0.2706047278556269 1.0000   
         C         C         1.0       0.6264380569287925  0.7685152545555087  0.2947103106712825 1.0000   
         C         C         1.0       0.5952512143241787  0.7679284364053425  0.3092649477557009 1.0000   
         C         C         1.0       0.46964279840271805           0.736030026488212  0.29189938103902374          1.0000   
         C         C         1.0       0.44360180180197784           0.7377100011637948 0.27282176627435384          1.0000   
         C         C         1.0       0.4476635356939263  0.7582483807736421  0.24796482581916543          1.0000   
         C         C         1.0       0.4773102210139166  0.7774132550082218  0.24521207540661624          1.0000   
         C         C         1.0       0.5021189085863529  0.7749003779953776  0.26460986826478144          1.0000   
         C         C         1.0       0.4991933261763365  0.7534975121265773  0.28781158404389157          1.0000   
         C         C         1.0       0.4178458810082092  0.7578393541519184  0.2243842668706353 1.0000   
         C         C         1.0       0.456453136188339   0.6648603867446771  0.18226152759981704          1.0000   
         C         C         1.0       0.427281144074512   0.6636228770304955  0.1986030553821653 1.0000   
         C         C         1.0       0.4163023408095589  0.692584497396349   0.21222657137295492          1.0000   
         C         C         1.0       0.43229795486898476           0.7243189095575169 0.20668574669332393          1.0000   
         C         C         1.0       0.460382785882931   0.7261717446257008  0.18898644543552448          1.0000   
         C         C         1.0       0.471680256761169   0.6963006981423703  0.1770429259755776 1.0000   
         C         C         1.0       0.41923881265050184           0.7913186359334258 0.2049118865906263 1.0000   
         C         C         1.0       0.4249295737600394  0.8233562262763168  0.21605172945330475          1.0000   
         C         C         1.0       0.4232772277189793  0.8526046465047632  0.19886350396606803          1.0000   
         C         C         1.0       0.41958799480922127           0.8489458056551978 0.1702071659456715 1.0000   
         C         C         1.0       0.4136936171107451  0.8170540070119213  0.15856233893110133          1.0000   
         C         C         1.0       0.4119012390686844  0.789094025213245   0.17502974070171634          1.0000   
         C         C         1.0       0.3525817355836806  0.7475774946203559  0.2208799879370656 1.0000   
         C         C         1.0       0.3204744703939923  0.755792740431761   0.22946209064059317          1.0000   
         C         C         1.0       0.3152379115786347  0.777368057138087   0.2522651153333508 1.0000   
         C         C         1.0       0.3414818721759257  0.7905519931777412  0.2671367869864888 1.0000   
         C         C         1.0       0.37392807964594826           0.7806802268764881 0.26063068950505713          1.0000   
         C         C         1.0       0.3801370563875592  0.7588889023741531  0.23698350338324237          1.0000   
         H         H         1.0       0.5505115013091911  0.7351917981690678  0.3645938552318473 1.0000   
         H         H         1.0       0.5148330921499569  0.6769398490524805  0.2915887455239684 1.0000   
         H         H         1.0       0.5285748595945686  0.624544694985648   0.3175493703780033 1.0000   
         H         H         1.0       0.5621337257719508  0.6813520815626497  0.38965370697481344          1.0000   
         H         H         1.0       0.5507958177730767  0.7237033344063656  0.26238548613590407          1.0000   
         H         H         1.0       0.6064604868550953  0.7183219307028753  0.2410494904521743 1.0000   
         H         H         1.0       0.6462004501733447  0.7845325837310897  0.30160060261613   1.0000   
         H         H         1.0       0.5942971503975165  0.7785492021484192  0.33175236646151546          1.0000   
         H         H         1.0       0.46850672578699415           0.720275581926592  0.31046193244511594          1.0000   
         H         H         1.0       0.42079194894209987           0.723467819465335  0.2742935648328001 1.0000   
         H         H         1.0       0.48299456988756423           0.7914195312765401 0.22592377038457861          1.0000   
         H         H         1.0       0.5256167229339747  0.7865589029447396  0.2610872223206382 1.0000   
         H         H         1.0       0.41544662465773885           0.6384875824737661 0.2030901163557188 1.0000   
         H         H         1.0       0.39614270178285166           0.6922077804279861 0.2278263429476151 1.0000   
         H         H         1.0       0.4715248541261242  0.7495277758989178  0.18377085661495668          1.0000   
         H         H         1.0       0.49505990114917087           0.6955231157841884 0.16368415842432874          1.0000   
         H         H         1.0       0.42809361020288705           0.8258689854604387 0.23910110568030477          1.0000   
         H         H         1.0       0.4306459085141261  0.8781552984456811  0.20919014411628703          1.0000   
         H         H         1.0       0.41212331939227936           0.8107902665715595 0.13610630498291393          1.0000   
         H         H         1.0       0.4061502145576704  0.7650068057123637  0.16453180981916093          1.0000   
         H         H         1.0       0.3583696277236164  0.7338044278627366  0.2014901619447106 1.0000   
         H         H         1.0       0.2990891668844655  0.7488890405321285  0.21732590474170205          1.0000   
         H         H         1.0       0.33654956333622515           0.8051075925364081 0.28717238753631746          1.0000   
         H         H         1.0       0.39398004331291303           0.7919611846809872 0.2742710734921419 1.0000   
         C         C         1.0       0.31955658679725635           0.762823003598459  0.9529483096476993 1.0000   
         C         C         1.0       0.3383005675071176  0.734045162867584   0.9460374202859877 1.0000   
         C         C         1.0       0.37211563661283287           0.7367468204328886 0.9407776281958397 1.0000   
         C         C         1.0       0.38916787807974695           0.7683446156233809 0.9432283367195399 1.0000   
         C         C         1.0       0.37080927053722423           0.7942635461834453 0.9553935141754346 1.0000   
         C         C         1.0       0.33653504292844094           0.7929201827807283 0.9575603548934859 1.0000   
         H         H         1.0       0.326232566431133   0.708502074749651   0.9472049692631282 1.0000   
         H         H         1.0       0.3865619940004873  0.7141368249483522  0.9394851254190406 1.0000   
         H         H         1.0       0.3821670141896596  0.8203290103930416  0.9608114535420085 1.0000   
         H         H         1.0       0.32275145206778244           0.8170022087791704 0.9642872522421854 1.0000   
         C         C         1.0       0.4178484184399152  0.8180267769744394  0.9002657133665647 1.0000   
         C         C         1.0       0.43959057643343713           0.8033261488489165 0.9193349499362875 1.0000   
         C         C         1.0       0.47366921458631234           0.8123169254570791 0.9183984081877332 1.0000   
         C         C         1.0       0.48377586689317087           0.8374674900404957 0.8990168978526435 1.0000   
         C         C         1.0       0.46066962882119766           0.8515994587848429 0.8802339947800883 1.0000   
         C         C         1.0       0.4276044559234507  0.8419929591956652  0.8809228758331354 1.0000   
         C         C         1.0       0.427844881733789   0.7713305735728206  0.939028183487741  1.0000   
         C         C         1.0       0.4460321516595479  0.7414105407225321  0.9207526901402989 1.0000   
         C         C         1.0       0.43197013965686337           0.7302016053755302 0.8949734396178941 1.0000   
         C         C         1.0       0.4499660302833563  0.7120974855754749  0.8740083945506947 1.0000   
         C         C         1.0       0.48329918523103715           0.7037425376042564 0.8796520684813967 1.0000   
         C         C         1.0       0.49643693048127724           0.7089591969798941 0.9070034200468517 1.0000   
         C         C         1.0       0.47885082262986745           0.7292264102244423 0.927125751587536  1.0000   
         C         C         1.0       0.4567602880995338  0.7975958623329712  0.9855073772562641 1.0000   
         C         C         1.0       0.46462909882266545           0.7955127312845296 0.014010281088917331         1.0000   
         C         C         1.0       0.4593721973614484  0.7671828095612052  0.030305082606189027         1.0000   
         C         C         1.0       0.4438185066167761  0.7389844772924442  0.016131565032688977         1.0000   
         C         C         1.0       0.434456682213722   0.7397185823129376  0.9873292843075454 1.0000   
         C         C         1.0       0.44182674651500775           0.7687585367870104 0.9713377998779471 1.0000   
         C         C         1.0       0.46884771848753554           0.7644359554166357 0.06361509960617018          1.0000   
         C         C         1.0       0.5600839908807023  0.7013550015205955  0.05068671610624253          1.0000   
         C         C         1.0       0.5619803672785697  0.7370554364110052  0.0530852659877398 1.0000   
         C         C         1.0       0.5331734780040132  0.7561442675072628  0.054859734742422665         1.0000   
         C         C         1.0       0.5019833376507845  0.7410080468462059  0.0597162814881742 1.0000   
         C         C         1.0       0.49993793175254914           0.705069601807102  0.057378432491504316         1.0000   
         C         C         1.0       0.5278981407496904  0.6855022259524137  0.05262430789210521          1.0000   
         C         C         1.0       0.4366426542802222  0.7481235361808966  0.08088134816725716          1.0000   
         C         C         1.0       0.40397195240071454           0.7605891625080607 0.07468680926956273          1.0000   
         C         C         1.0       0.3765457770498173  0.744965043588665   0.08726552488194361          1.0000   
         C         C         1.0       0.37986702772463915           0.7196402778997132 0.1068008777419028 1.0000   
         C         C         1.0       0.4117500005924184  0.7119719942382886  0.11559583286373662          1.0000   
         C         C         1.0       0.4403594826667476  0.7247016929684682  0.10296433962379176          1.0000   
         C         C         1.0       0.4901696487080785  0.8009913489325147  0.10678975935278796          1.0000   
         C         C         1.0       0.48953611293656646           0.8285151065650419 0.12558623052713402          1.0000   
         C         C         1.0       0.4701085689971808  0.8560600876212232  0.11798769614962483          1.0000   
         C         C         1.0       0.4560856593824368  0.857300154730455   0.09096167191326475          1.0000   
         C         C         1.0       0.4563207082958945  0.8285216873712903  0.07438273165375657          1.0000   
         C         C         1.0       0.475915259227002   0.8007786304686307  0.08016867851337191          1.0000   
         H         H         1.0       0.39008572631582666           0.8131368019039895 0.9019246712221609 1.0000   
         H         H         1.0       0.49355599010108875           0.8015463362152306 0.9315222584479926 1.0000   
         H         H         1.0       0.5097011904716373  0.8449256586316998  0.9010426733155479 1.0000   
         H         H         1.0       0.4092976701043614  0.8502776175266374  0.8646171369654554 1.0000   
         H         H         1.0       0.4055644935659847  0.7376007954180575  0.8895779822191071 1.0000   
         H         H         1.0       0.4388159736441085  0.7035837443314437  0.8543120536856557 1.0000   
         H         H         1.0       0.5215342833929417  0.7014440380332229  0.9126885419425624 1.0000   
         H         H         1.0       0.49134266743229293           0.7369237855514431 0.9471608728527537 1.0000   
         H         H         1.0       0.4631995582070175  0.8214949839240882  0.9754520791690783 1.0000   
         H         H         1.0       0.47655492703469876           0.8173956107548643 0.021282609912621542         1.0000   
         H         H         1.0       0.4384531770060496  0.7145759346654734  0.025531741474143388         1.0000   
         H         H         1.0       0.42160213596338364           0.7169351618270979 0.9786465135919948 1.0000   
         H         H         1.0       0.5870010483000291  0.7493493233664029  0.05130023467806665          1.0000   
         H         H         1.0       0.5364328421588368  0.7832329443360966  0.05539378148175589          1.0000   
         H         H         1.0       0.47482596756324746           0.6923514885780125 0.05663971555272651          1.0000   
         H         H         1.0       0.5247826942439764  0.6597244792249634  0.0511401098792541 1.0000   
         H         H         1.0       0.3995021937590642  0.7810434285984398  0.059193716276050745         1.0000   
         H         H         1.0       0.3508604897702357  0.7529465952245838  0.08118951495474369          1.0000   
         H         H         1.0       0.4144492758533324  0.6951498150805088  0.13421502961931   1.0000   
         H         H         1.0       0.464745733597736   0.7199986087401972  0.11063093904757719          1.0000   
         H         H         1.0       0.5022630898407054  0.7752948650503068  0.11140189187105069          1.0000   
         H         H         1.0       0.5011013723033723  0.8260084569133364  0.14773377196023066          1.0000   
         H         H         1.0       0.4411402788811477  0.8795592265284157  0.08346444625667311          1.0000   
         H         H         1.0       0.4374756435375106  0.8286714734325161  0.05716491665641632          1.0000   
         C         C         1.0       0.8432899123730417  0.5369728774396921  0.2717556835260849 1.0000   
         C         C         1.0       0.8259934421146979  0.5319837327119464  0.2466406769920012 1.0000   
         C         C         1.0       0.808143754244192   0.5585282127137242  0.23479127527595   1.0000   
         C         C         1.0       0.8032978228132285  0.5886636431392607  0.2508634333740648 1.0000   
         C         C         1.0       0.8237243675848461  0.5941472418026202  0.27426709607994576          1.0000   
         C         C         1.0       0.8437276704092616  0.568356182363557   0.2849949316628    1.0000   
         H         H         1.0       0.8288219679754506  0.5093117970094406  0.2342763263906788 1.0000   
         H         H         1.0       0.7954571001427174  0.5541085389380659  0.21520592874714872          1.0000   
         H         H         1.0       0.8226482274114494  0.6191465686487909  0.2846500191830525 1.0000   
         H         H         1.0       0.8605840911317753  0.5738070976328318  0.3029775736307148 1.0000   
         C         C         1.0       0.7523406846954176  0.619373644833422   0.295421277001476  1.0000   
         C         C         1.0       0.761031161312922   0.6364933985009383  0.27061347385726053          1.0000   
         C         C         1.0       0.7516299367743201  0.6715877103817207  0.2712649061463164 1.0000   
         C         C         1.0       0.7363424227037337  0.6893925599633489  0.2937129944724753 1.0000   
         C         C         1.0       0.7286935025154048  0.6693056241873466  0.31783352445463514          1.0000   
         C         C         1.0       0.7366707486249088  0.6356927883726932  0.31768784105790254          1.0000   
         C         C         1.0       0.775654114335541   0.6163332705489301  0.2426222162857505 1.0000   
         C         C         1.0       0.7421649936274465  0.6041802058106064  0.22879421741330325          1.0000   
         C         C         1.0       0.721002689600059   0.6242104159987273  0.21146012171308234          1.0000   
         C         C         1.0       0.6923300077913762  0.6111529979990261  0.20064798166490797          1.0000   
         C         C         1.0       0.6818378331769521  0.5777212132390318  0.2074202858339846 1.0000   
         C         C         1.0       0.6976960580574191  0.5606073116114101  0.22862529064783665          1.0000   
         C         C         1.0       0.7274742204755459  0.5741090449503384  0.2390556095116871 1.0000   
         C         C         1.0       0.818312590210159   0.6650033288573649  0.23467215385164317          1.0000   
         C         C         1.0       0.8283588427615772  0.6950140260629046  0.22265949161320125          1.0000   
         C         C         1.0       0.8176667827175252  0.703994109413552   0.19561240833197058          1.0000   
         C         C         1.0       0.8015144559688612  0.6776351606407858  0.17967404200282036          1.0000   
         C         C         1.0       0.7943949982026267  0.646067654216893   0.19190754179194208          1.0000   
         C         C         1.0       0.797307695520092   0.6422792372056294  0.22141354418898687          1.0000   
         C         C         1.0       0.814172984815528   0.7410774298615929  0.18596808584619443          1.0000   
         C         C         1.0       0.7116407176893919  0.760990540873298   0.21931958098284426          1.0000   
         C         C         1.0       0.7403061349324053  0.7687900474631176  0.23463506245058968          1.0000   
         C         C         1.0       0.7723296330787172  0.7631827007530414  0.2245773302321036 1.0000   
         C         C         1.0       0.7775948199890251  0.7499672494480034  0.1970823600531741 1.0000   
         C         C         1.0       0.7486923627033741  0.7439705122823412  0.181337078056678  1.0000   
         C         C         1.0       0.7167301789540478  0.748484457031029   0.1925896586855016 1.0000   
         C         C         1.0       0.8204728747526818  0.7480185826772545  0.1510833329380577 1.0000   
         C         C         1.0       0.8428932182624018  0.728388509118682   0.13419617641089746          1.0000   
         C         C         1.0       0.8486706756008962  0.7356787061844952  0.10739588502146755          1.0000   
         C         C         1.0       0.8348807813357789  0.7637827792790388  0.09342296647824169          1.0000   
         C         C         1.0       0.8128558500790071  0.7844057759364551  0.10993466246602533          1.0000   
         C         C         1.0       0.8067641870822189  0.7764152632598216  0.13837591981562156          1.0000   
         C         C         1.0       0.8353407668619189  0.8032120695186115  0.19893108157301417          1.0000   
         C         C         1.0       0.8614011780343145  0.8255408530374108  0.20764619093327874          1.0000   
         C         C         1.0       0.8931812645908553  0.8129391844436845  0.2106868490874723 1.0000   
         C         C         1.0       0.8991183726482389  0.7788199776053815  0.20683193515061524          1.0000   
         C         C         1.0       0.8749086960750488  0.7559034239688857  0.198908270696922  1.0000   
         C         C         1.0       0.8418965501307649  0.7675660030578318  0.1952576680407982 1.0000   
         H         H         1.0       0.7587615106026341  0.590651498287289   0.2976477361664538 1.0000   
         H         H         1.0       0.7544374092726359  0.6870253418072998  0.25350636837098484          1.0000   
         H         H         1.0       0.7292928404726637  0.7163725217026294  0.291685027855049  1.0000   
         H         H         1.0       0.7269629410966315  0.6192159213899355  0.33692484829997515          1.0000   
         H         H         1.0       0.7272090442378485  0.6494127708461641  0.20780855894680983          1.0000   
         H         H         1.0       0.6752372859580842  0.6278862917803888  0.1883850280228027 1.0000   
         H         H         1.0       0.6892984452527776  0.5368244343851871  0.23705739607994442          1.0000   
         H         H         1.0       0.741317416315331   0.5561171263080307  0.2530713821482498 1.0000   
         H         H         1.0       0.8263931729400511  0.6633389145034754  0.25670211122364217          1.0000   
         H         H         1.0       0.8411419519780428  0.7115567610902692  0.23716554526814618          1.0000   
         H         H         1.0       0.7917520992015221  0.6825399612474002  0.15926645907697257          1.0000   
         H         H         1.0       0.7786200261390234  0.6299565991336549  0.17899382856305884          1.0000   
         H         H         1.0       0.7363150423125584  0.7816558990374368  0.25612730286151497          1.0000   
         H         H         1.0       0.7923769274486979  0.769391764210624   0.24016490839980895          1.0000   
         H         H         1.0       0.7521280667825313  0.7353631756943486  0.1586643732119587 1.0000   
         H         H         1.0       0.6930055710158484  0.7450101960545994  0.1788711933422246 1.0000   
         H         H         1.0       0.8550047690147046  0.7041729334312624  0.1428297850926575 1.0000   
         H         H         1.0       0.8643137365543504  0.7160112493665511  0.09564869682492111          1.0000   
         H         H         1.0       0.8009999404672989  0.8074322849702317  0.10061611902198693          1.0000   
         H         H         1.0       0.7892940633553398  0.7905997243159375  0.1515667202478085 1.0000   
         H         H         1.0       0.8106168124183859  0.8141048223530445  0.1938910126808503 1.0000   
         H         H         1.0       0.8569839157672466  0.852542725927828   0.20999666160407993          1.0000   
         H         H         1.0       0.9234576951844626  0.7679925734945034  0.20802687493528704          1.0000   
         H         H         1.0       0.8840255969812473  0.7275410103031753  0.1964343107951876 1.0000   
         C         C         1.0       0.823359321537616   0.7225661151889866  0.9073095900068842 1.0000   
         C         C         1.0       0.7897446637823834  0.7251648109491925  0.9013887645596109 1.0000   
         C         C         1.0       0.7704430141558796  0.6960888538113364  0.8986835871509772 1.0000   
         C         C         1.0       0.7844659582010749  0.663084747695556   0.9011130916502871 1.0000   
         C         C         1.0       0.8186642651610728  0.661724271910225   0.906101549939187  1.0000   
         C         C         1.0       0.8377617335823754  0.6909970016951825  0.9082532147145828 1.0000   
         H         H         1.0       0.7767177832782488  0.7500527602370057  0.9037992931838115 1.0000   
         H         H         1.0       0.7440580673324034  0.7014056801219224  0.8948141420290994 1.0000   
         H         H         1.0       0.8341965660804366  0.6381919941232848  0.9078516748151191 1.0000   
         H         H         1.0       0.8653588802212595  0.6865847224515812  0.9110457252505246 1.0000   
         C         C         1.0       0.7966562147066895  0.6056087704088609  0.8576224947024936 1.0000   
         C         C         1.0       0.7797345263952911  0.5990362524406496  0.8828015497088739 1.0000   
         C         C         1.0       0.7798969323788149  0.5646480569067958  0.8902248967277292 1.0000   
         C         C         1.0       0.799940081176429   0.5408608275522848  0.8767759934621211 1.0000   
         C         C         1.0       0.8204935753526257  0.5493168315913461  0.8537800299468004 1.0000   
         C         C         1.0       0.8159635972140404  0.5819093260688336  0.8429439092124337 1.0000   
         C         C         1.0       0.7601399330065778  0.6287491662195295  0.9010235282700285 1.0000   
         C         C         1.0       0.7268301690725502  0.62926103082366    0.8820438007115102 1.0000   
         C         C         1.0       0.7023207630540579  0.6076429912383376  0.8915569930124935 1.0000   
         C         C         1.0       0.669985781828297   0.6092554835357682  0.8803968599030844 1.0000   
         C         C         1.0       0.6636806723660339  0.6287893170163782  0.8568461069842959 1.0000   
         C         C         1.0       0.6896783985489024  0.6496218430441618  0.8452256539438966 1.0000   
         C         C         1.0       0.720848607372468   0.6495645065352842  0.8585100432244315 1.0000   
         C         C         1.0       0.7775895623984033  0.6077678195645588  0.9524124907639548 1.0000   
         C         C         1.0       0.776029739286503   0.6089130449741368  0.9823355962917057 1.0000   
         C         C         1.0       0.7494704173557069  0.6257102870372964  0.9959483791046    1.0000   
         C         C         1.0       0.7261571789101215  0.6416787852419509  0.9785849454171108 1.0000   
         C         C         1.0       0.7300420862365872  0.6426804202635051  0.948866564359474  1.0000   
         C         C         1.0       0.7556707449024519  0.6240931893760987  0.9357370366427955 1.0000   
         C         C         1.0       0.7481448184483371  0.6335496316488797  0.02993161832397906          1.0000   
         C         C         1.0       0.7949436328126115  0.5464711369212626  0.07410501317278419          1.0000   
         C         C         1.0       0.7981416466234272  0.5799222351784423  0.08470476626979134          1.0000   
         C         C         1.0       0.7826861045416423  0.6065498045638054  0.07239046048556444          1.0000   
         C         C         1.0       0.7640035370877769  0.6013001820860118  0.04780161795494734          1.0000   
         C         C         1.0       0.7599300247011372  0.5682546109462734  0.03748191577821913          1.0000   
         C         C         1.0       0.7750802002690511  0.5408297082720642  0.049931076665484575         1.0000   
         C         C         1.0       0.7097361363717388  0.6419707241249141  0.03990043338330995          1.0000   
         C         C         1.0       0.6976211687760149  0.6749728243490003  0.03700988201349631          1.0000   
         C         C         1.0       0.6679155207639373  0.6853138309015544  0.049538270172641403         1.0000   
         C         C         1.0       0.647611980837539   0.6614655458638733  0.06298007557666688          1.0000   
         C         C         1.0       0.6591891972434324  0.6279158754622364  0.06655436888653814          1.0000   
         C         C         1.0       0.6895384555480367  0.619168249746546   0.05424686061597633          1.0000   
         C         C         1.0       0.7664950398103374  0.6890400286629795  0.058849444270946835         1.0000   
         C         C         1.0       0.7795302442426708  0.7212690082428557  0.059718029165844184         1.0000   
         C         C         1.0       0.8041473326793497  0.7298853756053034  0.038449633557064544         1.0000   
         C         C         1.0       0.8170358706885849  0.7044374825126326  0.02127624054919597          1.0000   
         C         C         1.0       0.8026841164172309  0.6728597394867675  0.01949649813377885          1.0000   
         C         C         1.0       0.77347719739708    0.6656275245072251  0.03522167947245847          1.0000   
         H         H         1.0       0.7975338621007911  0.6316825563086403  0.8492469488324061 1.0000   
         H         H         1.0       0.7633970355629659  0.5530781510751687  0.9079563273255541 1.0000   
         H         H         1.0       0.7996090612114252  0.5140692710707286  0.8862575869507788 1.0000   
         H         H         1.0       0.831771823697983   0.5928897713597389  0.8257426886814804 1.0000   
         H         H         1.0       0.7095315228271316  0.5887839594961156  0.9076277852543622 1.0000   
         H         H         1.0       0.6511012726361067  0.5924926684315939  0.8876932653650964 1.0000   
         H         H         1.0       0.6911240249978328  0.6628645118845184  0.8244189519868602 1.0000   
         H         H         1.0       0.7401669333016113  0.6659067119019113  0.8495753366829446 1.0000   
         H         H         1.0       0.7970522829680909  0.5913320748412993  0.9445274824989515 1.0000   
         H         H         1.0       0.7963901998484112  0.5972648690811777  0.9961191515313206 1.0000   
         H         H         1.0       0.7056566904159353  0.6562150900330936  0.9862024923095687 1.0000   
         H         H         1.0       0.7104238042248322  0.6540831965301303  0.9354480141223895 1.0000   
         H         H         1.0       0.8086117093732522  0.5828081356239981  0.10505301753109945          1.0000   
         H         H         1.0       0.7846160496291522  0.6312507129496582  0.08327299489960766          1.0000   
         H         H         1.0       0.7431981241020791  0.5654752275427956  0.01980725593670618          1.0000   
         H         H         1.0       0.7697106145340513  0.5139245928869478  0.04404863073215015          1.0000   
         H         H         1.0       0.7131943060657999  0.6921430148462108  0.023377627986811422         1.0000   
         H         H         1.0       0.6561377896867228  0.7090622159476193  0.041285259781168815         1.0000   
         H         H         1.0       0.643904899611047   0.6081177186432661  0.07657395159517724          1.0000   
         H         H         1.0       0.6980081248937989  0.5949157004258951  0.058663814958284904         1.0000   
         H         H         1.0       0.7482244820526209  0.6803365076725875  0.07578021836222734          1.0000   
         H         H         1.0       0.7689098509206742  0.7389218267126246  0.07451625285163936          1.0000   
         H         H         1.0       0.8392700540313284  0.7075688374733982  0.007444204764021079         1.0000   
         H         H         1.0       0.8145928055884325  0.656698287797404   0.004173410431361102         1.0000   
         C         C         1.0       0.6645985939422788  0.3660986881092434  0.3470646311290278 1.0000   
         C         C         1.0       0.6465836345968479  0.35330580827876196           0.32499947035816396          1.0000   
         C         C         1.0       0.6347827322171601  0.373876121778827   0.30261116338798993          1.0000   
         C         C         1.0       0.6368195738361585  0.41009985877437405           0.3050734171864486 1.0000   
         C         C         1.0       0.6557033162403116  0.42280195354857586           0.3278520457568057 1.0000   
         C         C         1.0       0.6705741615309069  0.4011779200166303  0.34819708333938443          1.0000   
         H         H         1.0       0.6423030905199911  0.3252844221399313  0.3235898089832845 1.0000   
         H         H         1.0       0.6240606412057268  0.36090501605898867           0.2845997827135734 1.0000   
         H         H         1.0       0.6634106556865926  0.44931459689989145           0.3290692226186917 1.0000   
         H         H         1.0       0.6845999064936795  0.4134150137532526  0.3642266948494989 1.0000   
         C         C         1.0       0.5998288319497869  0.4813869566287548  0.31281434883268666          1.0000   
         C         C         1.0       0.6167820924482676  0.47307366435459736           0.28802432269643136          1.0000   
         C         C         1.0       0.6234366724618752  0.5003870543612577  0.2681927805910552 1.0000   
         C         C         1.0       0.6121499454065689  0.5331708668032172  0.2727251481998985 1.0000   
         C         C         1.0       0.5968091245793017  0.5399198675099295  0.2989431096832615 1.0000   
         C         C         1.0       0.5917855969656258  0.5137452726680442  0.3191535079272687 1.0000   
         C         C         1.0       0.6236919254299609  0.43527497221661055           0.27988196038030794          1.0000   
         C         C         1.0       0.5868914336939591  0.42818695354661257           0.26646936929915493          1.0000   
         C         C         1.0       0.580086571571102   0.44004780545266087           0.2386737664785367 1.0000   
         C         C         1.0       0.5479333738763439  0.43687143274360557           0.22685280254033807          1.0000   
         C         C         1.0       0.5224193655322713  0.4261991595695156  0.24254637255468126          1.0000   
         C         C         1.0       0.5281973241825051  0.41579109042826173           0.2707284753697051 1.0000   
         C         C         1.0       0.5604176561675183  0.415456810853618   0.28113096777342944          1.0000   
         C         C         1.0       0.6861821105882914  0.44653346175360914           0.2611605686203059 1.0000   
         C         C         1.0       0.7117556366235728  0.43927398528572914           0.24144452003616051          1.0000   
         C         C         1.0       0.7080636719695035  0.41872019412075945           0.21760462724503443          1.0000   
         C         C         1.0       0.6779034636452664  0.4008063999255845  0.21504563462356832          1.0000   
         C         C         1.0       0.6513541092032789  0.406270486298901   0.23552767953432827          1.0000   
         C         C         1.0       0.6546770377378477  0.43001659802166353           0.2579754587980422 1.0000   
         C         C         1.0       0.7364645735587605  0.4174528055069455  0.19274713650526248          1.0000   
         C         C         1.0       0.691762052043586   0.5131089429473437  0.16469709028026913          1.0000   
         C         C         1.0       0.7247924044124354  0.5134122510826381  0.17467017359009776          1.0000   
         C         C         1.0       0.7417084695439143  0.48317082520728477           0.17959593810587315          1.0000   
         C         C         1.0       0.7255885122877427  0.4523516003786005  0.17594549040528645          1.0000   
         C         C         1.0       0.6938366402875851  0.4528877012782898  0.16260088151015503          1.0000   
         C         C         1.0       0.6768595825338978  0.4838605549576531  0.1589043196217451 1.0000   
         C         C         1.0       0.7372454155133518  0.3834695970887093  0.17196255722690623          1.0000   
         C         C         1.0       0.7297555315228715  0.350678482118831   0.18339863394491546          1.0000   
         C         C         1.0       0.719863772741246   0.32502181631186794           0.1648714235818811 1.0000   
         C         C         1.0       0.718391813986021   0.3300845101796586  0.13614022884640095          1.0000   
         C         C         1.0       0.7322635987194626  0.36032305478874865           0.12393574510388249          1.0000   
         C         C         1.0       0.7401652476511427  0.38728843451421424           0.142207286533935  1.0000   
         C         C         1.0       0.8006017588876115  0.42805336271778643           0.1853962243409921 1.0000   
         C         C         1.0       0.8339456364701872  0.4219003418348044  0.19236755842158437          1.0000   
         C         C         1.0       0.8422275962960438  0.4075974725286287  0.21904028394612804          1.0000   
         C         C         1.0       0.8163327848691087  0.40214256859311437           0.2378665019542481 1.0000   
         C         C         1.0       0.783540090966243   0.4026067743489029  0.22908747382645456          1.0000   
         C         C         1.0       0.7746345458925561  0.4161862343770146  0.20317080626585277          1.0000   
         H         H         1.0       0.5941863718234649  0.4610541187653033  0.3294198954008651 1.0000   
         H         H         1.0       0.6345620268616115  0.49561715287600905           0.246986075094689  1.0000   
         H         H         1.0       0.6190914843828467  0.5532512030860358  0.2593534541385937 1.0000   
         H         H         1.0       0.5832007967034829  0.5199146609030454  0.3412444216547146 1.0000   
         H         H         1.0       0.6008944732042856  0.4492213234120754  0.22649163010354556          1.0000   
         H         H         1.0       0.54430199352146    0.44420631191873244           0.20446561107700972          1.0000   
         H         H         1.0       0.5079584552624832  0.4059290396377978  0.28270953221210954          1.0000   
         H         H         1.0       0.559685002887832   0.4130883976377071  0.30323202644441616          1.0000   
         H         H         1.0       0.6901774296579533  0.4598349615446063  0.2816364184643734 1.0000   
         H         H         1.0       0.7340692424348811  0.45535363258714506           0.24349148428880885          1.0000   
         H         H         1.0       0.6740553172102501  0.38250292939095787           0.1975318377802763 1.0000   
         H         H         1.0       0.6280984007882631  0.3905088190792774  0.23365657670527748          1.0000   
         H         H         1.0       0.7357934771588959  0.5388112341255495  0.17790262929979608          1.0000   
         H         H         1.0       0.7636156980842758  0.48446852884777003           0.19528502990896027          1.0000   
         H         H         1.0       0.6803053816522269  0.4310492099528502  0.15786584105711637          1.0000   
         H         H         1.0       0.6521425985875298  0.48386622432784565           0.14860573937941046          1.0000   
         H         H         1.0       0.7324855309721741  0.3450607763037659  0.20542939548578584          1.0000   
         H         H         1.0       0.7091362491207186  0.30508984296416314           0.17450940127418954          1.0000   
         H         H         1.0       0.7311991863105415  0.36366610135651967           0.10073229620670439          1.0000   
         H         H         1.0       0.7497294846046354  0.41058887878391376           0.13120764754634   1.0000   
         H         H         1.0       0.7954554964595912  0.43809074880053717           0.16467169231070578          1.0000   
         H         H         1.0       0.8547674203520024  0.4324110530759068  0.1792214043491776 1.0000   
         H         H         1.0       0.8216947230428004  0.39561746656247737           0.25883882158818855          1.0000   
         H         H         1.0       0.7631072254186853  0.39540440574614866           0.24265784342148378          1.0000   
         C         C         1.0       0.8369716723010134  0.43142573293120795           0.9037227454525133 1.0000   
         C         C         1.0       0.8165689941678624  0.44128892891269383           0.8819875368112557 1.0000   
         C         C         1.0       0.7826018311415854  0.44331035845490474           0.8865451320479006 1.0000   
         C         C         1.0       0.7667706108207788  0.4288976797564588  0.9108863977724088 1.0000   
         C         C         1.0       0.7883898568468355  0.413751813492394   0.9319541009112579 1.0000   
         C         C         1.0       0.8231156524834821  0.4173177399229234  0.9290353220856321 1.0000   
         H         H         1.0       0.8241811880621379  0.45165955824703014           0.8619369944802776 1.0000   
         H         H         1.0       0.7662397947452082  0.45619000588076036           0.8710146769945764 1.0000   
         H         H         1.0       0.7748951367185329  0.40126652187060985           0.9517458559439322 1.0000   
         H         H         1.0       0.8411530014941567  0.4066623073189885  0.9432302490844818 1.0000   
         C         C         1.0       0.7117903802461062  0.3606040919290391  0.906137179490349  1.0000   
         C         C         1.0       0.7208485808226353  0.3919515025825625  0.8948348584890712 1.0000   
         C         C         1.0       0.7196388450846622  0.39453850281242525           0.8650491654146394 1.0000   
         C         C         1.0       0.7065941952804892  0.36776066239639105           0.8489126225468843 1.0000   
         C         C         1.0       0.6927964119235933  0.33967418941011207           0.8622976033095548 1.0000   
         C         C         1.0       0.6970978832762302  0.33527153313423014           0.8910143035303728 1.0000   
         C         C         1.0       0.7275328466506715  0.42567628307564004           0.9138210242099652 1.0000   
         C         C         1.0       0.7053339042823698  0.45669673501626845           0.9017308289905579 1.0000   
         C         C         1.0       0.7172841911100143  0.4895204026819507  0.8974160041760446 1.0000   
         C         C         1.0       0.6974682385118861  0.5139116342135576  0.8847168701341256 1.0000   
         C         C         1.0       0.665704650640225   0.5049929777113199  0.8755727319944692 1.0000   
         C         C         1.0       0.6523105417377597  0.4732759923503977  0.881738897982223  1.0000   
         C         C         1.0       0.6717440607920377  0.4488530117304993  0.8965153500127797 1.0000   
         C         C         1.0       0.6877204020452437  0.4123875105243861  0.957568076321006  1.0000   
         C         C         1.0       0.6765361754214165  0.41554963839912495           0.9848351275622649 1.0000   
         C         C         1.0       0.6941800324428604  0.4352291533058145  0.004786515986916706         1.0000   
         C         C         1.0       0.7216406637223591  0.45320332354055204           0.9943572712109859 1.0000   
         C         C         1.0       0.730536904604465   0.4519283005564465  0.9655995302231636 1.0000   
         C         C         1.0       0.7155268360329773  0.4279632952035417  0.9472688282808505 1.0000   
         C         C         1.0       0.6813429411850989  0.43889309786334596           0.03698119247077903          1.0000   
         C         C         1.0       0.5995266659519546  0.5130546706336878  0.023071516514929336         1.0000   
         C         C         1.0       0.591632809012085   0.47833235923136713           0.026138020057699496         1.0000   
         C         C         1.0       0.6167520390660135  0.45506406331617005           0.029750981331365223         1.0000   
         C         C         1.0       0.6501730410716787  0.4658894073288655  0.033199804383604814         1.0000   
         C         C         1.0       0.6585104900232828  0.500199849788043   0.026738464000777066         1.0000   
         C         C         1.0       0.6325023111321049  0.5231897596224271  0.02310757573427491          1.0000   
         C         C         1.0       0.7113561296172084  0.4498424084712925  0.05807872876863733          1.0000   
         C         C         1.0       0.7429237762784424  0.43299195958287917           0.057302629675023704         1.0000   
         C         C         1.0       0.768998646015611   0.44770647585591417           0.07326219277209778          1.0000   
         C         C         1.0       0.7622199362187099  0.47335753410828335           0.09412625109832261          1.0000   
         C         C         1.0       0.7305358244816822  0.48584821446080784           0.09688282256967845          1.0000   
         C         C         1.0       0.705538471589882   0.4747881509223353  0.07912453885906476          1.0000   
         C         C         1.0       0.6541593330663226  0.4062618662724291  0.07885570774008599          1.0000   
         C         C         1.0       0.6494038485057617  0.3785259035541725  0.09589164664592048          1.0000   
         C         C         1.0       0.6620875707452094  0.3461920612223715  0.08702121871570362          1.0000   
         C         C         1.0       0.6763685642289207  0.34220286119198123           0.060926887212829746         1.0000   
         C         C         1.0       0.6804941857707145  0.37111725115719796           0.04353169978745398          1.0000   
         C         C         1.0       0.6706060829268801  0.40362004082069847           0.05253810939011007          1.0000   
         H         H         1.0       0.7144714064165225  0.35553345689548177           0.9283483236078555 1.0000   
         H         H         1.0       0.7193859458780367  0.4186678943384998  0.8544615446790942 1.0000   
         H         H         1.0       0.7034722832715777  0.37239795593332237           0.8263433064599649 1.0000   
         H         H         1.0       0.6888253442124324  0.31205163518360385           0.9013564821005298 1.0000   
         H         H         1.0       0.7413886573163149  0.49507602899312914           0.9057252057777513 1.0000   
         H         H         1.0       0.7093520276418063  0.538466598671473   0.8800094286014885 1.0000   
         H         H         1.0       0.6263347601749565  0.4678161226356912  0.8779701195290079 1.0000   
         H         H         1.0       0.6626247482620287  0.4242890220968574  0.8993265968430231 1.0000   
         H         H         1.0       0.6730753727796877  0.39764597087587183           0.9417443597609083 1.0000   
         H         H         1.0       0.6520051903406707  0.40498537190781425           0.9885702668299525 1.0000   
         H         H         1.0       0.7350257513617239  0.4712304076708045  0.007608215689816289         1.0000   
         H         H         1.0       0.7499600923498385  0.46859606886872235           0.9609044945535353 1.0000   
         H         H         1.0       0.5660076718184743  0.470160006038558   0.026104718017806672         1.0000   
         H         H         1.0       0.6109002646213734  0.42738172007920733           0.030614841503002754         1.0000   
         H         H         1.0       0.6844931118932929  0.5099701965754515  0.02567209009048632          1.0000   
         H         H         1.0       0.6368823955101113  0.548155117583598   0.0200171267821454 1.0000   
         H         H         1.0       0.7477367772605333  0.41428302552681406           0.04078630019631557          1.0000   
         H         H         1.0       0.7914667312284748  0.4366990291217874  0.06833782108757294          1.0000   
         H         H         1.0       0.7243259621356319  0.502933540639179   0.11351131669887765          1.0000   
         H         H         1.0       0.6811297239760331  0.48800521081845394           0.08173652435722732          1.0000   
         H         H         1.0       0.6520848927872662  0.4310088107930078  0.08833054057289863          1.0000   
         H         H         1.0       0.6397255949297054  0.38246468137518297           0.1170718610359608 1.0000   
         H         H         1.0       0.6880494287562701  0.31898837540998076           0.05424928610792255          1.0000   
         H         H         1.0       0.6964733116698145  0.3685294283017847  0.02475498565495715          1.0000   
         C         C         1.0       0.31091207910659585           0.6292848846478634 0.265539741321243  1.0000   
         C         C         1.0       0.33617480506441993           0.6320718851283539 0.24374670373227023          1.0000   
         C         C         1.0       0.35550977571674114           0.6040182531824975 0.23878333899613752          1.0000   
         C         C         1.0       0.354015742431068   0.5750116673488749  0.2557676371906896 1.0000   
         C         C         1.0       0.3284505955925569  0.5738829265716131  0.2764207759603122 1.0000   
         C         C         1.0       0.3055051619326888  0.6003546091543392  0.2810433842391064 1.0000   
         H         H         1.0       0.3352879626823123  0.6544609603149364  0.2291436789996973 1.0000   
         H         H         1.0       0.37382596969201254           0.6057354437114459 0.22164496503901956          1.0000   
         H         H         1.0       0.3273862839060366  0.5517826874793207  0.2900367368050183 1.0000   
         H         H         1.0       0.2846195210040279  0.6009936215474264  0.297056904536062  1.0000   
         C         C         1.0       0.39730781464861353           0.5429195404787929 0.3032883829071134 1.0000   
         C         C         1.0       0.39347712387739414           0.527747715765429  0.27746470939276835          1.0000   
         C         C         1.0       0.40419112652369765           0.49346669582297487          0.2738281294574809 1.0000   
         C         C         1.0       0.4165860222283386  0.47489772754051796           0.2972472330700764 1.0000   
         C         C         1.0       0.4187915658148552  0.4908785456036953  0.32391008094437396          1.0000   
         C         C         1.0       0.4078353941661461  0.5249188759978917  0.32620651333788003          1.0000   
         C         C         1.0       0.3811333241284641  0.5462997162519712  0.24999334980348856          1.0000   
         C         C         1.0       0.4176668841174033  0.556640766683021   0.23868995993042919          1.0000   
         C         C         1.0       0.43601427983449315           0.5400933865529319 0.21837529901311556          1.0000   
         C         C         1.0       0.46178232118586093           0.5569831709776721 0.2028080241897644 1.0000   
         C         C         1.0       0.47363563398524716           0.5885387419294575 0.2134572357027386 1.0000   
         C         C         1.0       0.45896064491495087           0.6024766705154061 0.23740134178686043          1.0000   
         C         C         1.0       0.43060744015288904           0.5886824757077107 0.24924442815950495          1.0000   
         C         C         1.0       0.3362478738083123  0.4983972932718202  0.2412262282053754 1.0000   
         C         C         1.0       0.32401307641770877           0.47185889465540076          0.22484983795907765          1.0000   
         C         C         1.0       0.33307198435289886           0.46852579318252413          0.1956879868100031 1.0000   
         C         C         1.0       0.35003129006478334           0.495943803219878  0.1840986187213247 1.0000   
         C         C         1.0       0.3620813116061643  0.5230484742723864  0.19966163479884533          1.0000   
         C         C         1.0       0.3590186642145291  0.5228422323738396  0.230060350020578  1.0000   
         C         C         1.0       0.33384553515728654           0.43132120304882127          0.17884892237886185          1.0000   
         C         C         1.0       0.439112156706588   0.40706309012928527           0.20119904996504206          1.0000   
         C         C         1.0       0.41239915869630805           0.3985990740603956 0.21917901160811923          1.0000   
         C         C         1.0       0.3796113115446826  0.4080811393986026  0.21308241267463385          1.0000   
         C         C         1.0       0.37094149854313097           0.4205931455895451 0.18660435996245264          1.0000   
         C         C         1.0       0.39736689911092343           0.42701743956262334          0.16768741861893763          1.0000   
         C         C         1.0       0.43034935314676825           0.4182764320017594 0.17394694852697073          1.0000   
         C         C         1.0       0.32590098608083606           0.4318664507528507 0.1458692920129913 1.0000   
         C         C         1.0       0.30681188010843224           0.4582395523585714 0.13555946194381757          1.0000   
         C         C         1.0       0.2962064680167895  0.45856302345726213           0.10871419204410276          1.0000   
         C         C         1.0       0.30543965200791073           0.4325773233018017 0.09026913385922411          1.0000   
         C         C         1.0       0.32715381916009306           0.4063096866000785 0.09849528004852035          1.0000   
         C         C         1.0       0.33541420474531064           0.40516331081330237          0.1272440201111082 1.0000   
         C         C         1.0       0.31236435480646085           0.36896762317197823          0.19116974498704928          1.0000   
         C         C         1.0       0.288283783304838   0.3479585719852731  0.20435166239708588          1.0000   
         C         C         1.0       0.2564087552404136  0.35957221438773446           0.21364792617500905          1.0000   
         C         C         1.0       0.24990937942966426           0.39298815917621316          0.20660517276735604          1.0000   
         C         C         1.0       0.27343340315623627           0.4139046131049926 0.19478503804810524          1.0000   
         C         C         1.0       0.30640296319677757           0.4037685076056556 0.1901183812549576 1.0000   
         H         H         1.0       0.3919655815220013  0.5697240126819306  0.30718193304201497          1.0000   
         H         H         1.0       0.40315833768520254           0.480607093776986  0.25271472825298036          1.0000   
         H         H         1.0       0.42611784139330167           0.4489357255310691 0.29567721120862556          1.0000   
         H         H         1.0       0.41084121463624285           0.5359992901950478 0.34783346747552235          1.0000   
         H         H         1.0       0.43040859078796995           0.5136232514745575 0.2112187767645627 1.0000   
         H         H         1.0       0.47685475086157764           0.5431657928644295 0.18485644353935307          1.0000   
         H         H         1.0       0.4635810050233033  0.6305229588221383  0.24455806284910298          1.0000   
         H         H         1.0       0.4160031316913652  0.6048068620974693  0.264370408342778  1.0000   
         H         H         1.0       0.3324642164933417  0.49781845680016584           0.26370559158448226          1.0000   
         H         H         1.0       0.30872453967908764           0.450885062157121  0.23387996316164578          1.0000   
         H         H         1.0       0.35294684860528536           0.49939994162261725          0.16171935365361784          1.0000   
         H         H         1.0       0.3802493009252763  0.5408844270719576  0.18946281844424148          1.0000   
         H         H         1.0       0.41741117493016    0.3891108204789489  0.2401244639181385 1.0000   
         H         H         1.0       0.36075456649285126           0.4046596244216768 0.22986683558970994          1.0000   
         H         H         1.0       0.39371996571586954           0.4379613460518398 0.1472933219436806 1.0000   
         H         H         1.0       0.44761363824435835           0.425144999238997  0.1585289340754484 1.0000   
         H         H         1.0       0.2977824475944703  0.47981660105375845           0.1486887598247127 1.0000   
         H         H         1.0       0.2800590949713251  0.47969455415414025           0.10194605433572497          1.0000   
         H         H         1.0       0.33810236859851706           0.39000972927158195          0.08335461260534328          1.0000   
         H         H         1.0       0.3519942187017453  0.3843040678892215  0.13440482651508778          1.0000   
         H         H         1.0       0.337079752092156   0.3583072716798943  0.1837409089003635 1.0000   
         H         H         1.0       0.29379988070961116           0.32011350070766414          0.20638657370989905          1.0000   
         H         H         1.0       0.22470687022250668           0.4030587504119698 0.20758122618425837          1.0000   
         H         H         1.0       0.26473253721558554           0.44027753594065666          0.19066835561555395          1.0000   
         C         C         1.0       0.34586201889365303           0.48173231109238906          0.9139281227391535 1.0000   
         C         C         1.0       0.3799944310715881  0.48161098428776516           0.9100919256262858 1.0000   
         C         C         1.0       0.39613559599098563           0.5126596449069156 0.904698301715465  1.0000   
         C         C         1.0       0.3800582011561001  0.5427209887744453  0.9025948079731718 1.0000   
         C         C         1.0       0.3452969150979517  0.5418499739777424  0.9075236212671263 1.0000   
         C         C         1.0       0.3283831861183136  0.5120102337820587  0.9121616936205548 1.0000   
         H         H         1.0       0.39450414299777686           0.45777995222103574          0.9109465190480899 1.0000   
         H         H         1.0       0.42318310628090644           0.513012864643693  0.9004412513517566 1.0000   
         H         H         1.0       0.3308187325100189  0.564985625453555   0.9076943782258449 1.0000   
         H         H         1.0       0.30201905518773414           0.5120652861098577 0.9159583255194815 1.0000   
         C         C         1.0       0.36167390598697463           0.5992692489805086 0.8620064242557639 1.0000   
         C         C         1.0       0.3811264700622902  0.6068034622805979  0.8858826307095825 1.0000   
         C         C         1.0       0.3812710951053722  0.6405173891659856  0.8958851655848001 1.0000   
         C         C         1.0       0.3600829472246964  0.6645638105258518  0.8837854531960946 1.0000   
         C         C         1.0       0.3398561484339091  0.6566114691967743  0.8609772625051693 1.0000   
         C         C         1.0       0.3418412883934433  0.6236334354718825  0.8492114399880398 1.0000   
         C         C         1.0       0.4003251539858809  0.5781533922337355  0.9005951584694784 1.0000   
         C         C         1.0       0.43427028088015773           0.5779917296504061 0.8813060178742556 1.0000   
         C         C         1.0       0.45993818038864154           0.6006518104657289 0.8874522345408342 1.0000   
         C         C         1.0       0.49158926088088195           0.5979898201229372 0.8756355209703717 1.0000   
         C         C         1.0       0.4971305812851169  0.5732473457307795  0.8552847245155715 1.0000   
         C         C         1.0       0.47012420109874203           0.552792982316392  0.8466759649403143 1.0000   
         C         C         1.0       0.43863737897198934           0.5549978232923255 0.8579006934811146 1.0000   
         C         C         1.0       0.3810311134057673  0.5965417073946634  0.9521241139190483 1.0000   
         C         C         1.0       0.3832806174811195  0.5951406040135027  0.9813195989419681 1.0000   
         C         C         1.0       0.4072629585520466  0.5759056584353235  0.9947135788188546 1.0000   
         C         C         1.0       0.43138494422663226           0.560352214463886  0.9771332899749521 1.0000   
         C         C         1.0       0.4314271654193354  0.5649175331894625  0.9482657576629514 1.0000   
         C         C         1.0       0.40501618134194006           0.5812330851499118 0.9343832566393011 1.0000   
         C         C         1.0       0.40556993520002005           0.5674815294070291 0.02879808730385225          1.0000   
         C         C         1.0       0.3574951785415626  0.6506352830043172  0.08238535602512664          1.0000   
         C         C         1.0       0.35937122965605434           0.6172554013013883 0.09261008501411298          1.0000   
         C         C         1.0       0.37426287969136973           0.592503888793135  0.0754520124734073 1.0000   
         C         C         1.0       0.38928200655894907           0.5983386020891621 0.049151772548451156         1.0000   
         C         C         1.0       0.3904724085617907  0.6335630420675222  0.04144956245904985          1.0000   
         C         C         1.0       0.37280111685839756           0.6586634868374386 0.057060790186268084         1.0000   
         C         C         1.0       0.44426459254666373           0.5613258312729706 0.03860655694617443          1.0000   
         C         C         1.0       0.4598409240819251  0.5291972641445687  0.03572638140874074          1.0000   
         C         C         1.0       0.49504548477117283           0.524378365926869  0.03761282415814571          1.0000   
         C         C         1.0       0.5140790497712514  0.5512304910930446  0.04715623029714289          1.0000   
         C         C         1.0       0.4999117625823683  0.582835740971526   0.050111437778279866         1.0000   
         C         C         1.0       0.4666026323776319  0.5881843581538967  0.045059992714448605         1.0000   
         C         C         1.0       0.38663630018397427           0.5091898308784775 0.054321483387468825         1.0000   
         C         C         1.0       0.36643839926914556           0.4810272469901829 0.05713546735750038          1.0000   
         C         C         1.0       0.3389024070208397  0.4765965841436751  0.03934736816676643          1.0000   
         C         C         1.0       0.33267961448681826           0.5019425883316173 0.019818346002018927         1.0000   
         C         C         1.0       0.3531340086136615  0.5304935690343415  0.01680742324233897          1.0000   
         C         C         1.0       0.3822955143183213  0.5344834522474099  0.03317674950661886          1.0000   
         H         H         1.0       0.3596867958883319  0.5738468135799852  0.8528217466679918 1.0000   
         H         H         1.0       0.39512959270578646           0.6494056247939579 0.9151795446087353 1.0000   
         H         H         1.0       0.3642472057708882  0.6903334441625522  0.8897646511543476 1.0000   
         H         H         1.0       0.3298935629978014  0.6174131480079429  0.8302075031639407 1.0000   
         H         H         1.0       0.4558405478789101  0.6186994005075557  0.9043687587148764 1.0000   
         H         H         1.0       0.5132227344690045  0.6136304237753024  0.8821130076634109 1.0000   
         H         H         1.0       0.47732618633453056           0.5336276646950404 0.8306662928194914 1.0000   
         H         H         1.0       0.4191742023440882  0.537955944529068   0.8501028017365634 1.0000   
         H         H         1.0       0.3590539889238248  0.6087461900664345  0.942994723658567  1.0000   
         H         H         1.0       0.36430382078779366           0.6083937842844919 0.9934791715551801 1.0000   
         H         H         1.0       0.4511041084500984  0.5424800434191366  0.9827605124931832 1.0000   
         H         H         1.0       0.45115654434738206           0.5550244760983998 0.9330689672205859 1.0000   
         H         H         1.0       0.3497502790307016  0.6111032643280807  0.11430790621605648          1.0000   
         H         H         1.0       0.3745937928912757  0.5682143567199898  0.08636009719564343          1.0000   
         H         H         1.0       0.40196058540487684           0.643278397051846  0.020740551564683685         1.0000   
         H         H         1.0       0.372705422288473   0.6843365860110994  0.050493351475275006         1.0000   
         H         H         1.0       0.4450899892459117  0.5073962454188607  0.028298673585426704         1.0000   
         H         H         1.0       0.5060737635580087  0.4996075837326148  0.030769606048351328         1.0000   
         H         H         1.0       0.51871895852729    0.6042163533479423  0.0499507400539172 1.0000   
         H         H         1.0       0.45845375252220466           0.6145829323810178 0.043970035884140175         1.0000   
         H         H         1.0       0.4020135533536216  0.5119466488476615  0.07153882402265009          1.0000   
         H         H         1.0       0.37325994630191855           0.4595054113310791 0.0718975233137869 1.0000   
         H         H         1.0       0.31016199744018563           0.4995595937472587 0.005078511755803428         1.0000   
         H         H         1.0       0.3448491143354188  0.5485612990358267  0.9993894433599556 1.0000   
         C         C         1.0       0.8134706767706913  0.4838335137773677  0.3157231565640033 1.0000   
         C         C         1.0       0.8223913082433484  0.5000719449258039  0.3407559641839411 1.0000   
         C         C         1.0       0.7985538246735528  0.513611002212738   0.3593009129254043 1.0000   
         C         C         1.0       0.7644715915400762  0.508966098286264   0.35427601859142094          1.0000   
         C         C         1.0       0.7558233454708275  0.4891611120992422  0.33124791377327717          1.0000   
         C         C         1.0       0.7787939453496563  0.47826801499517463           0.3105914413001807 1.0000   
         H         H         1.0       0.8484952755324938  0.5066753112191765  0.3457330052175518 1.0000   
         H         H         1.0       0.8081156048686975  0.5276780911838145  0.37748658192522616          1.0000   
         H         H         1.0       0.7301639339251473  0.48614267021656954           0.32578176471310133          1.0000   
         H         H         1.0       0.7687721738912304  0.46681207659626317           0.29214924797059244          1.0000   
         C         C         1.0       0.7090233518857555  0.5545676391049422  0.3337258460023888 1.0000   
         C         C         1.0       0.7072714500042484  0.5423282729482585  0.3615627851410239 1.0000   
         C         C         1.0       0.6756765983183431  0.5473281209127677  0.3762154210957961 1.0000   
         C         C         1.0       0.6496384730342706  0.5641416440324907  0.36188180070867326          1.0000   
         C         C         1.0       0.6534087138032717  0.576061312699118   0.3345457877290872 1.0000   
         C         C         1.0       0.6822656235219193  0.5692138040967376  0.32034034770665937          1.0000   
         C         C         1.0       0.7398370991417941  0.5278567151312535  0.37711856693272355          1.0000   
         C         C         1.0       0.7497940012750886  0.5640298543781381  0.3920113661313021 1.0000   
         C         C         1.0       0.7342450666562069  0.5742404524688173  0.4182892340979783 1.0000   
         C         C         1.0       0.7397011286660011  0.6051272403188681  0.43086330513447973          1.0000   
         C         C         1.0       0.7574014526500543  0.6300266889331791  0.4163976275009502 1.0000   
         C         C         1.0       0.7717753464620716  0.6223489803016855  0.3896949588773076 1.0000   
         C         C         1.0       0.7679181802408991  0.589810415542329   0.3776584372174741 1.0000   
         C         C         1.0       0.709144622010496   0.4767142600735434  0.403159614540566  1.0000   
         C         C         1.0       0.70926538181342    0.4506564337166905  0.42344408891943214          1.0000   
         C         C         1.0       0.7362416752131756  0.4486157038124419  0.4435344151037232 1.0000   
         C         C         1.0       0.7595014786757701  0.47461757322831116           0.4441785444131342 1.0000   
         C         C         1.0       0.7597631438195582  0.4983022118081708  0.4225747598923624 1.0000   
         C         C         1.0       0.7352629338646566  0.500032662400663   0.4021251107036307 1.0000   
         C         C         1.0       0.7344085414495993  0.42177613819388504           0.4702069724288733 1.0000   
         C         C         1.0       0.656669893437295   0.47585165302554694           0.5180891627620049 1.0000   
         C         C         1.0       0.6497238144092595  0.44315995682569864           0.5075889311284891 1.0000   
         C         C         1.0       0.6725569180314991  0.42614244545439417           0.4907947546430685 1.0000   
         C         C         1.0       0.7057144993897173  0.4391292886932472  0.48813538803821455          1.0000   
         C         C         1.0       0.713487091643591   0.47080487701322055           0.5023077851600779 1.0000   
         C         C         1.0       0.6891449036388652  0.4895321290813044  0.5150467190919988 1.0000   
         C         C         1.0       0.7698448713995406  0.41777690533114775           0.48675308784124566          1.0000   
         C         C         1.0       0.8010777974706953  0.41721665767758465           0.4718501595660601 1.0000   
         C         C         1.0       0.829904194817194   0.4174120399263241  0.48718015536348835          1.0000   
         C         C         1.0       0.8291650361585953  0.4216580151669748  0.5158997819732456 1.0000   
         C         C         1.0       0.8000629184017204  0.41325446143170114           0.5300356785777968 1.0000   
         C         C         1.0       0.770275186241778   0.4123492950172766  0.515383202580299  1.0000   
         C         C         1.0       0.7213278303676407  0.35737912003455313           0.4773982447023775 1.0000   
         C         C         1.0       0.7207107523924142  0.32376290891041654           0.4695931208963379 1.0000   
         C         C         1.0       0.7338417525518452  0.3142702446606423  0.44245336049425704          1.0000   
         C         C         1.0       0.7429387164641397  0.33832753443911995           0.42239958173427933          1.0000   
         C         C         1.0       0.7403500992335827  0.3717588514754327  0.43080977460483744          1.0000   
         C         C         1.0       0.7314153311132048  0.3834500396756039  0.45820099990667007          1.0000   
         H         H         1.0       0.7305819559885711  0.5495511377060392  0.32043742087744176          1.0000   
         H         H         1.0       0.6717739452518002  0.5418578239109559  0.3991387396613432 1.0000   
         H         H         1.0       0.6288706546743069  0.5734573158729339  0.3752438697636131 1.0000   
         H         H         1.0       0.6842658004205275  0.5750174394396025  0.29688915339131666          1.0000   
         H         H         1.0       0.7188900529422619  0.5554297467163117  0.43015915489929474          1.0000   
         H         H         1.0       0.7313097043261627  0.6135172414670901  0.4515866369731256 1.0000   
         H         H         1.0       0.7872505143446691  0.6406841934960882  0.3769011570098795 1.0000   
         H         H         1.0       0.7828358376000821  0.5856161221485869  0.35927115900431766          1.0000   
         H         H         1.0       0.6868897453726015  0.47602617393361596           0.3897099098282762 1.0000   
         H         H         1.0       0.6893426352387333  0.43182120900320925           0.4264111276696448 1.0000   
         H         H         1.0       0.778445316387109   0.4755485177115054  0.460265339578262  1.0000   
         H         H         1.0       0.7800269720622897  0.5181528399473584  0.42131425008114126          1.0000   
         H         H         1.0       0.6228178013930151  0.4341732805165916  0.5097972785877679 1.0000   
         H         H         1.0       0.6652744680784193  0.4010165708737223  0.4804464320670078 1.0000   
         H         H         1.0       0.7383978995403222  0.48374748732306466           0.5002806531182039 1.0000   
         H         H         1.0       0.6953939475225304  0.5151162143987289  0.5247947762219122 1.0000   
         H         H         1.0       0.8018698454375263  0.41491982482925754           0.4492896144509828 1.0000   
         H         H         1.0       0.8522593597686412  0.41378733844939614           0.4737746102653883 1.0000   
         H         H         1.0       0.7958541596694937  0.41664449749583715           0.5528383746829166 1.0000   
         H         H         1.0       0.746235789848022   0.40847502301712335           0.5248615083864797 1.0000   
         H         H         1.0       0.7121741732081843  0.363286247025599   0.4990700680811884 1.0000   
         H         H         1.0       0.7147668963694611  0.30606059826058346           0.4865590916716176 1.0000   
         H         H         1.0       0.7556690450220376  0.33141959142548716           0.401897525832381  1.0000   
         H         H         1.0       0.7482185157043638  0.3900390167107339  0.4134058407694361 1.0000   
         C         C         1.0       0.7483552009096537  0.35272323301357694           0.7256859323860119 1.0000   
         C         C         1.0       0.7210612446476369  0.36771731505911753           0.7400692820140233 1.0000   
         C         C         1.0       0.7225679226782559  0.40228097799401197           0.7472336424535893 1.0000   
         C         C         1.0       0.7513191941680346  0.42262600937882777           0.7418309020174605 1.0000   
         C         C         1.0       0.7783068045117035  0.4063649520345813  0.7270978817060477 1.0000   
         C         C         1.0       0.7777696623395234  0.3722823901053367  0.7204055864391251 1.0000   
         H         H         1.0       0.6992060101354364  0.3538017997190797  0.7464428897478427 1.0000   
         H         H         1.0       0.700726893633403   0.41682651118895947           0.7548086387278213 1.0000   
         H         H         1.0       0.7999475584851597  0.4232988675411816  0.7225860370667057 1.0000   
         H         H         1.0       0.7988456403153249  0.36140199383615834           0.7068391545080286 1.0000   
         C         C         1.0       0.7990406225198512  0.4595832966875945  0.7815754689428447 1.0000   
         C         C         1.0       0.782046246281815   0.478144027593296   0.761096718995246  1.0000   
         C         C         1.0       0.7920372212198692  0.5122409555165692  0.7571681040486469 1.0000   
         C         C         1.0       0.8188512873225089  0.5248583204842889  0.771912466900048  1.0000   
         C         C         1.0       0.8338036723329774  0.5063639354216757  0.7941794753553071 1.0000   
         C         C         1.0       0.8261340032651149  0.4721357371308176  0.7966389163606261 1.0000   
         C         C         1.0       0.7513003986173546  0.4637684638231214  0.7450140506517927 1.0000   
         C         C         1.0       0.7201891967536235  0.4803105422318798  0.7623424138845888 1.0000   
         C         C         1.0       0.7026624773551012  0.5097939639509765  0.7558952083995726 1.0000   
         C         C         1.0       0.6828065839693087  0.5280240200733664  0.7750357678740364 1.0000   
         C         C         1.0       0.6801953331269569  0.5171996478628079  0.8030263106329332 1.0000   
         C         C         1.0       0.6926116026991591  0.48448260326300524           0.8086466964629186 1.0000   
         C         C         1.0       0.715166722569954   0.4697905778441797  0.7905243129150551 1.0000   
         C         C         1.0       0.7774229542440321  0.48756039876422314           0.6954684450981805 1.0000   
         C         C         1.0       0.7743660847933727  0.4955777848736711  0.6672115405200831 1.0000   
         C         C         1.0       0.7446382602699883  0.4899711748474292  0.6536546631652198 1.0000   
         C         C         1.0       0.7167532783371678  0.47923420523724347           0.6699296978076216 1.0000   
         C         C         1.0       0.7192842634608048  0.4701322680698082  0.6981642686410316 1.0000   
         C         C         1.0       0.7498506408232695  0.47422844506767303           0.7114156605473829 1.0000   
         C         C         1.0       0.7400775142044599  0.48765212774853933           0.6205212052741886 1.0000   
         C         C         1.0       0.6690955326446466  0.5721275647490404  0.6069395218333411 1.0000   
         C         C         1.0       0.702737959373618   0.5788973312037128  0.6092263637733024 1.0000   
         C         C         1.0       0.7253933216468172  0.5526518227950191  0.6132868976146025 1.0000   
         C         C         1.0       0.7150248895144491  0.5188574382459814  0.6146163920276044 1.0000   
         C         C         1.0       0.6793651990737299  0.5125987822322626  0.6134744205959101 1.0000   
         C         C         1.0       0.6578764219884604  0.5406509742782846  0.6115889447935684 1.0000   
         C         C         1.0       0.725199901782268   0.4518255742556922  0.6088502440874762 1.0000   
         C         C         1.0       0.7331538665843795  0.42175368559689363           0.6233649705109032 1.0000   
         C         C         1.0       0.7192691241798959  0.3906058960702643  0.6138838037611574 1.0000   
         C         C         1.0       0.6999307507168091  0.3876499150786938  0.5900222638873001 1.0000   
         C         C         1.0       0.6967918700525263  0.41700154764263453           0.572862341057865  1.0000   
         C         C         1.0       0.711358489185897   0.4475716835052683  0.5815426210874313 1.0000   
         C         C         1.0       0.7736868930493397  0.5025432440670548  0.5721258974559832 1.0000   
         C         C         1.0       0.8013992272329475  0.498611640844184   0.55437079494981   1.0000   
         C         C         1.0       0.8292532704138734  0.48071574595447475           0.5639011657998695 1.0000   
         C         C         1.0       0.8286547460776552  0.46714735016734255           0.5914091975775302 1.0000   
         C         C         1.0       0.8013457095541339  0.4700497436137503  0.6080498194204912 1.0000   
         C         C         1.0       0.7722160612099463  0.4881939592236452  0.5997607331298824 1.0000   
         H         H         1.0       0.7872393250038944  0.43492465589308316           0.7883331322033771 1.0000   
         H         H         1.0       0.7811268200927706  0.5285639588132177  0.7418697228478878 1.0000   
         H         H         1.0       0.8269112326342636  0.5517476111986432  0.7706816722935996 1.0000   
         H         H         1.0       0.8404070600605488  0.45187149982688735           0.8079731910345199 1.0000   
         H         H         1.0       0.7067615743242458  0.5198564931926933  0.7352407242018182 1.0000   
         H         H         1.0       0.6720161423772015  0.5535576069229378  0.7704696382399836 1.0000   
         H         H         1.0       0.6980144598719074  0.4761752263613861  0.8307360571522947 1.0000   
         H         H         1.0       0.7281211684461428  0.4457820342807516  0.795002876056615  1.0000   
         H         H         1.0       0.8009644168646458  0.4958697856677121  0.7044751634117338 1.0000   
         H         H         1.0       0.7952841368717923  0.5031598758592576  0.6549439090615403 1.0000   
         H         H         1.0       0.6923978405181119  0.4779232342261597  0.6618852361341873 1.0000   
         H         H         1.0       0.6966916858264202  0.46360501161158624           0.7108736045077207 1.0000   
         H         H         1.0       0.7126277584083465  0.6046090822406927  0.6082076996922896 1.0000   
         H         H         1.0       0.7525570000358961  0.5614950008722293  0.6119509934446539 1.0000   
         H         H         1.0       0.6678290386522089  0.48729021636119607           0.6153029744540164 1.0000   
         H         H         1.0       0.6315664578446679  0.5378072604351798  0.6181260515478215 1.0000   
         H         H         1.0       0.7486892292060291  0.42453877887751    0.6425355177898594 1.0000   
         H         H         1.0       0.7227585582935282  0.3670508576353399  0.6261508053158212 1.0000   
         H         H         1.0       0.6819476191554624  0.41497460563840066           0.5536101182028054 1.0000   
         H         H         1.0       0.7052169465418487  0.4672883205833983  0.5675763580360298 1.0000   
         H         H         1.0       0.7520549833903283  0.51470289915562    0.5641977139861829 1.0000   
         H         H         1.0       0.8021777133352843  0.5106763402620097  0.5321932319651032 1.0000   
         H         H         1.0       0.849402586148292   0.4525353238633046  0.5977844263782506 1.0000   
         H         H         1.0       0.801408317566313   0.45359122303351346           0.6261171533568359 1.0000   
         C         C         1.0       0.5473081629194487  0.8463109353910461  0.4214316644069967 1.0000   
         C         C         1.0       0.5448317953398265  0.8292484337771362  0.44654853522423943          1.0000   
         C         C         1.0       0.5656841445606857  0.8013950184048303  0.45182872772653715          1.0000   
         C         C         1.0       0.590145715428112   0.7907711239917893  0.43201579124128303          1.0000   
         C         C         1.0       0.595980090157991   0.8118501213969155  0.40860564665922133          1.0000   
         C         C         1.0       0.575319521454958   0.8401106753834017  0.40424398469579575          1.0000   
         H         H         1.0       0.5260222427038943  0.838666762588071   0.4626203235683001 1.0000   
         H         H         1.0       0.5610034221544188  0.7885937050348737  0.47172657713189986          1.0000   
         H         H         1.0       0.6165810197915433  0.8049992292212842  0.39611872572826207          1.0000   
         H         H         1.0       0.5809937420810518  0.8562323974738606  0.38585272049050784          1.0000   
         C         C         1.0       0.6187410481647915  0.7381311843332591  0.3857321936999648 1.0000   
         C         C         1.0       0.629100727617287   0.7376443455567054  0.4141694698929185 1.0000   
         C         C         1.0       0.653769401804376   0.7137990751666595  0.42180820474906694          1.0000   
         C         C         1.0       0.668832524827549   0.6917721922941423  0.40174830184939075          1.0000   
         C         C         1.0       0.6606264172769057  0.6948424103613309  0.3734075023413264 1.0000   
         C         C         1.0       0.6354915210819579  0.7182311563206363  0.364940175742014  1.0000   
         C         C         1.0       0.6125264138362954  0.7590848079730949  0.4395997898670979 1.0000   
         C         C         1.0       0.5886706303882304  0.7301539737645719  0.4534030354869718 1.0000   
         C         C         1.0       0.5975164061992744  0.7098979016748502  0.47662675981462554          1.0000   
         C         C         1.0       0.5742104991002565  0.685362100566413   0.48623675438253955          1.0000   
         C         C         1.0       0.5444841997149856  0.6805153086175761  0.4712172887801808 1.0000   
         C         C         1.0       0.5376312429862532  0.6961525141554403  0.44565519504556356          1.0000   
         C         C         1.0       0.5589023445844421  0.7224493956915681  0.4387601634458115 1.0000   
         C         C         1.0       0.6678642008812431  0.7937251471388893  0.4430160701623923 1.0000   
         C         C         1.0       0.6977416331471107  0.8016571092343951  0.45606190470781366          1.0000   
         C         C         1.0       0.702696440820333   0.7980176240237837  0.48532761173824485          1.0000   
         C         C         1.0       0.6759909683381499  0.782553535040397   0.4997119960856487 1.0000   
         C         C         1.0       0.6459192093928492  0.7737870081788196  0.48749329669080993          1.0000   
         C         C         1.0       0.6429348660010783  0.7733989840092068  0.4582443578068478 1.0000   
         C         C         1.0       0.7388321097729641  0.8041706794222188  0.5002211700469678 1.0000   
         C         C         1.0       0.7774268709914709  0.7041435299315659  0.47111228537326977          1.0000   
         C         C         1.0       0.7858629264749388  0.7348578242711321  0.456982869318686  1.0000   
         C         C         1.0       0.7741125510374011  0.7651823334961425  0.46753476295797   1.0000   
         C         C         1.0       0.7568880840935723  0.7677234433847276  0.49276176508800945          1.0000   
         C         C         1.0       0.7495994036682283  0.7373416991858466  0.5068066421171421 1.0000   
         C         C         1.0       0.758223305333402   0.7060175931027696  0.49546363044352093          1.0000   
         C         C         1.0       0.74065203220275    0.8148241307082876  0.5337507599379845 1.0000   
         C         C         1.0       0.7138233038424876  0.8324582087544189  0.5457439408829995 1.0000   
         C         C         1.0       0.7161033863986983  0.8468966825454557  0.5726236754429592 1.0000   
         C         C         1.0       0.7443901149367682  0.8415085875507949  0.589674186954498  1.0000   
         C         C         1.0       0.7710310215670112  0.8205463087139039  0.5786502295604328 1.0000   
         C         C         1.0       0.768239904534811   0.808643612932523   0.55084192054595   1.0000   
         C         C         1.0       0.7963567602090915  0.8392174507290082  0.48848151268545675          1.0000   
         C         C         1.0       0.8126651509993016  0.8683153402702697  0.4820224383363832 1.0000   
         C         C         1.0       0.7957297018085383  0.8966125451057653  0.4757602381176621 1.0000   
         C         C         1.0       0.7605553516808317  0.8956612706268504  0.4740515248999985 1.0000   
         C         C         1.0       0.7433706046938943  0.8676480093482868  0.48162665692682133          1.0000   
         C         C         1.0       0.7603193894679571  0.837850204309404   0.4895325993456611 1.0000   
         H         H         1.0       0.5976776376456857  0.7519521615676535  0.3807062866313817 1.0000   
         H         H         1.0       0.6613624481184328  0.7117980532458018  0.4445757267113691 1.0000   
         H         H         1.0       0.683877761446268   0.6711329558411221  0.41027725200237214          1.0000   
         H         H         1.0       0.6264777470401515  0.7191151317209975  0.3443915164536438 1.0000   
         H         H         1.0       0.6214960973593059  0.7119093236106284  0.48765468662180617          1.0000   
         H         H         1.0       0.5800212364068229  0.6721892211213766  0.5062414506099112 1.0000   
         H         H         1.0       0.5165533839884504  0.687391841652018   0.4347417659966886 1.0000   
         H         H         1.0       0.5527048128512003  0.7366235734608895  0.41949446988769595          1.0000   
         H         H         1.0       0.6678748336101671  0.7963095607675893  0.4194826158407838 1.0000   
         H         H         1.0       0.7187127005869521  0.8126569469629923  0.44404444659913694          1.0000   
         H         H         1.0       0.6782444599911933  0.776136508139348   0.5218685250887585 1.0000   
         H         H         1.0       0.626597161897613   0.7622880848079051  0.5016035714525785 1.0000   
         H         H         1.0       0.7980306775741265  0.7319843408370862  0.4364967473496467 1.0000   
         H         H         1.0       0.7767148388962555  0.7858930486542236  0.4530432463805621 1.0000   
         H         H         1.0       0.7318529476930367  0.7382559945061781  0.5243768372742187 1.0000   
         H         H         1.0       0.746537621760287   0.6841544679853743  0.5060479232216447 1.0000   
         H         H         1.0       0.6916026656186856  0.8412719313337159  0.533136965146556  1.0000   
         H         H         1.0       0.6928376281160692  0.8602979401101413  0.5795286252544322 1.0000   
         H         H         1.0       0.7927219884682881  0.8147539976314093  0.5910720772812524 1.0000   
         H         H         1.0       0.7897700729057388  0.7946725345043508  0.5419199182483994 1.0000   
         H         H         1.0       0.8114411930370575  0.8154792710887209  0.4913448993341392 1.0000   
         H         H         1.0       0.8399147207528501  0.869530032666897   0.47980699175278196          1.0000   
         H         H         1.0       0.7458995043905599  0.9178055842015125  0.4682702636015651 1.0000   
         H         H         1.0       0.71713704629859    0.8696796908374439  0.47663571093518564          1.0000   
         C         C         1.0       0.689228361272315   0.8439337286405459  0.7797247356559033 1.0000   
         C         C         1.0       0.6890077861801902  0.8086280334509782  0.7784543301171518 1.0000   
         C         C         1.0       0.6594103798799172  0.7899710575796934  0.7825622743514633 1.0000   
         C         C         1.0       0.6280470829817958  0.8056079123580437  0.7835360575716639 1.0000   
         C         C         1.0       0.6279791509990034  0.8411769787711069  0.783079439500531  1.0000   
         C         C         1.0       0.6579808618712957  0.8609626709544813  0.7814508174698618 1.0000   
         H         H         1.0       0.7111475998178602  0.7934599373803329  0.7780902064340928 1.0000   
         H         H         1.0       0.6621876078161563  0.7621115942992879  0.780175977678968  1.0000   
         H         H         1.0       0.6035358725770152  0.8538748033130769  0.780338309020463  1.0000   
         H         H         1.0       0.6575892146637762  0.8883987681927438  0.7793613987773423 1.0000   
         C         C         1.0       0.5670752939640429  0.8205998809460338  0.8272001435201556 1.0000   
         C         C         1.0       0.5656290458683341  0.803297598353425   0.80041840115266   1.0000   
         C         C         1.0       0.535399999816133   0.8045427389679835  0.7855265795818221 1.0000   
         C         C         1.0       0.5099905493038799  0.8244428037597747  0.796152178928828  1.0000   
         C         C         1.0       0.5111434933896118  0.8446807296587268  0.8209310163737416 1.0000   
         C         C         1.0       0.5406384762748316  0.8407929397001955  0.836728844718959  1.0000   
         C         C         1.0       0.5946750920192725  0.7825266941362823  0.7850021946157474 1.0000   
         C         C         1.0       0.597022996351567   0.7493073371384998  0.8048520833592359 1.0000   
         C         C         1.0       0.578003994722623   0.7211654320797268  0.7965137408891007 1.0000   
         C         C         1.0       0.5801022156289362  0.6899802743548464  0.8110903665840238 1.0000   
         C         C         1.0       0.6005099640458847  0.6870703741853115  0.8338163986048028 1.0000   
         C         C         1.0       0.6213776039475685  0.7138983485269167  0.8410199980072726 1.0000   
         C         C         1.0       0.6172564078830184  0.7457782887026402  0.8290309027136137 1.0000   
         C         C         1.0       0.581239717004728   0.7992553137052779  0.7312191557507695 1.0000   
         C         C         1.0       0.5862823498309969  0.7937157277658048  0.7016618415693374 1.0000   
         C         C         1.0       0.6025754822865091  0.7644490450863645  0.6906213436505194 1.0000   
         C         C         1.0       0.6116170988797454  0.7414625817146906  0.7106659788220121 1.0000   
         C         C         1.0       0.6094667313939881  0.7470421536412857  0.7392235412047322 1.0000   
         C         C         1.0       0.5922914361066466  0.7747590507761419  0.7503271829208098 1.0000   
         C         C         1.0       0.6190559620423356  0.7604256041544861  0.6589146888219694 1.0000   
         C         C         1.0       0.5572039682090419  0.813567966792282   0.5931833421503466 1.0000   
         C         C         1.0       0.5890079015592329  0.8068675630415573  0.5880591869709813 1.0000   
         C         C         1.0       0.6083511907210064  0.7891533862086147  0.6072918293104567 1.0000   
         C         C         1.0       0.5957892733281859  0.7782596625488639  0.6344790711384378 1.0000   
         C         C         1.0       0.5610588918044933  0.7845142961459408  0.6379921821478568 1.0000   
         C         C         1.0       0.5423380300938502  0.8016586040143455  0.6184800711415152 1.0000   
         C         C         1.0       0.6185148823196145  0.7202066472639094  0.648361631090197  1.0000   
         C         C         1.0       0.6467819635006575  0.7000953291829719  0.6542495629265289 1.0000   
         C         C         1.0       0.647444071234152   0.665870297974336   0.649435230029752  1.0000   
         C         C         1.0       0.6207218748106945  0.6499520776164786  0.636122288394145  1.0000   
         C         C         1.0       0.5924031322043654  0.6686303155701573  0.6303691450237092 1.0000   
         C         C         1.0       0.5921156851302134  0.7036068362129936  0.6365269488301043 1.0000   
         C         C         1.0       0.6797548917257412  0.7680702385413078  0.6399408699586323 1.0000   
         C         C         1.0       0.7101422461585222  0.7838749457151774  0.6361787402446012 1.0000   
         C         C         1.0       0.716024741681891   0.8158301292815141  0.6497133841870736 1.0000   
         C         C         1.0       0.6904675302561764  0.8293663345232153  0.6679673966254384 1.0000   
         C         C         1.0       0.6604484480125233  0.8110665666138911  0.6717972539536579 1.0000   
         C         C         1.0       0.654309479100524   0.7801939842045053  0.6586528432277722 1.0000   
         H         H         1.0       0.5899524200267607  0.8163221911943566  0.8386013869187166 1.0000   
         H         H         1.0       0.5281580873678431  0.793731620859717   0.7659707855436255 1.0000   
         H         H         1.0       0.4890091317230756  0.823409717846275   0.7841090696941355 1.0000   
         H         H         1.0       0.5444343083738774  0.8552254703838212  0.8561192426487813 1.0000   
         H         H         1.0       0.5606644413739245  0.72415725605743    0.7796233610250285 1.0000   
         H         H         1.0       0.5637066520152122  0.6695432699166348  0.8044843717304645 1.0000   
         H         H         1.0       0.6385608172190206  0.7082962269625854  0.858319632207647  1.0000   
         H         H         1.0       0.6299610862950901  0.7675380539361947  0.83961839782105   1.0000   
         H         H         1.0       0.5731953205379757  0.8240157262716725  0.736742932143647  1.0000   
         H         H         1.0       0.5767191275870844  0.8150398698337652  0.6884037844746546 1.0000   
         H         H         1.0       0.6237674271697935  0.7181678557371355  0.7034205787695225 1.0000   
         H         H         1.0       0.6228600863712662  0.7291926014773096  0.7514345711469801 1.0000   
         H         H         1.0       0.5998793112799006  0.8150350301446748  0.5683581517552281 1.0000   
         H         H         1.0       0.6351762202886179  0.786086117404245   0.6017903074901922 1.0000   
         H         H         1.0       0.5464146951276874  0.7746424429293732  0.6564457653476902 1.0000   
         H         H         1.0       0.5159244267912195  0.8042246741384238  0.6219667020249516 1.0000   
         H         H         1.0       0.6695554990451409  0.7103479579635871  0.662951262822585  1.0000   
         H         H         1.0       0.6709472287438052  0.6551651824155628  0.6571962439377571 1.0000   
         H         H         1.0       0.5703624981479629  0.6568366599548877  0.621819738136085  1.0000   
         H         H         1.0       0.5673618590035591  0.7170431000854183  0.6335402316475154 1.0000   
         H         H         1.0       0.6755147394876788  0.7473452941470551  0.6248626029514671 1.0000   
         H         H         1.0       0.7273320996558456  0.7731534038742763  0.6200465156496673 1.0000   
         H         H         1.0       0.6945806819258408  0.852681462322849   0.6778041649021466 1.0000   
         H         H         1.0       0.6410697052536858  0.8246795932538985  0.6829049030376222 1.0000   
         C         C         1.0       0.32350668150166506           0.6754520345155768 0.31877627428806166          1.0000   
         C         C         1.0       0.30850492521796163           0.6648882342198893 0.34410321018274925          1.0000   
         C         C         1.0       0.32843166734032775           0.6527404343318682 0.36581519627560805          1.0000   
         C         C         1.0       0.36429610710790566           0.6532753772745971 0.36395991685292706          1.0000   
         C         C         1.0       0.3776952995946421  0.6688184557924964  0.3396146584509606 1.0000   
         C         C         1.0       0.3576692199606447  0.6790072744633894  0.31648999349270596          1.0000   
         H         H         1.0       0.27998284188814826           0.6654567955072177 0.34549433195762486          1.0000   
         H         H         1.0       0.31637163357686615           0.64507860241168   0.3862245455209821 1.0000   
         H         H         1.0       0.40617428821576285           0.672357508401746  0.33845407842549763          1.0000   
         H         H         1.0       0.3706706868072224  0.691985111503471   0.2986082989484722 1.0000   
         C         C         1.0       0.4327377620952779  0.6116715894137497  0.36072902563090864          1.0000   
         C         C         1.0       0.423712787823242   0.6317864210886199  0.3856427073950238 1.0000   
         C         C         1.0       0.44737610063463634           0.6346320469205494 0.4067690729458422 1.0000   
         C         C         1.0       0.47922139457756757           0.62176783149686   0.40268000034873985          1.0000   
         C         C         1.0       0.48776452607549575           0.6027823919312001 0.3780277461268449 1.0000   
         C         C         1.0       0.46426161781437614           0.5970880417857416 0.3573572268726111 1.0000   
         C         C         1.0       0.38529195225381524           0.644415165794267  0.39309074324776494          1.0000   
         C         C         1.0       0.3731915831863806  0.609221436873449   0.4093660938647112 1.0000   
         C         C         1.0       0.3777158584953094  0.6075469401703837  0.4384653102371228 1.0000   
         C         C         1.0       0.3747518097313526  0.5770970059927847  0.4530824108775952 1.0000   
         C         C         1.0       0.36658498294492586           0.5473800691568934 0.4390853014303798 1.0000   
         C         C         1.0       0.3622502534502635  0.5487920846374983  0.4097325154896131 1.0000   
         C         C         1.0       0.3645662341582023  0.5795803581034396  0.3960573850951163 1.0000   
         C         C         1.0       0.406495160556601   0.7063308263074328  0.4024100465680758 1.0000   
         C         C         1.0       0.4069555727565006  0.7360430131016779  0.4188840210730268 1.0000   
         C         C         1.0       0.38461437288736217           0.7395075048716092 0.4422929137186231 1.0000   
         C         C         1.0       0.3626811697986058  0.712682758898044   0.4478566563445827 1.0000   
         C         C         1.0       0.3601392852839065  0.6849499461072188  0.4300311838381405 1.0000   
         C         C         1.0       0.3842647330660055  0.6792279100132969  0.4092561525977024 1.0000   
         C         C         1.0       0.39241298568805544           0.7691080067088553 0.46569215222022475          1.0000   
         C         C         1.0       0.4732825496605178  0.7076180291891134  0.5020396448837615 1.0000   
         C         C         1.0       0.48196629988977324           0.7365875748557281 0.4868716944311101 1.0000   
         C         C         1.0       0.45758777146934887           0.7563530057169128 0.4759254351749161 1.0000   
         C         C         1.0       0.4237706743230239  0.7492115755084127  0.48092801946533753          1.0000   
         C         C         1.0       0.41639036012776265           0.7240416319889109 0.5008884386588701 1.0000   
         C         C         1.0       0.4406964380762928  0.701813087388652   0.5106049898207653 1.0000   
         C         C         1.0       0.36271641403571664           0.7777092521371587 0.48809573025930414          1.0000   
         C         C         1.0       0.3283199021846181  0.7763880009867692  0.48222426828464426          1.0000   
         C         C         1.0       0.3042390975165605  0.7805763376815459  0.5029194054511418 1.0000   
         C         C         1.0       0.31441299150909563           0.7894860611387122 0.5305134034207935 1.0000   
         C         C         1.0       0.34654493885022614           0.796015724902776  0.5366634297879648 1.0000   
         C         C         1.0       0.3710340559486499  0.7882906229092154  0.5164561380221349 1.0000   
         C         C         1.0       0.41571150368387627           0.8303214290135768 0.4691695883364065 1.0000   
         C         C         1.0       0.41892981706627763           0.8638558447047976 0.4603972774591242 1.0000   
         C         C         1.0       0.4017070191580264  0.8745575971968891  0.436083605163509  1.0000   
         C         C         1.0       0.3848740863175307  0.8502107192395221  0.42006826799749863          1.0000   
         C         C         1.0       0.3818004057449967  0.816290186646125   0.43051714145079173          1.0000   
         C         C         1.0       0.39867830249243746           0.8064844486900802 0.454356134204635  1.0000   
         H         H         1.0       0.4141035504681376  0.604167459943504   0.3445660346712274 1.0000   
         H         H         1.0       0.44135191700597326           0.6468556052917004 0.42664276631319703          1.0000   
         H         H         1.0       0.4975377100088873  0.6218498225302014  0.419720127111783  1.0000   
         H         H         1.0       0.4706763924335268  0.5810675209314673  0.33937731184852965          1.0000   
         H         H         1.0       0.38222443549357726           0.6301204595199879 0.4511902547109474 1.0000   
         H         H         1.0       0.3802451815767161  0.5793831724856041  0.47549544224985424          1.0000   
         H         H         1.0       0.3566905702971815  0.5253578071540833  0.39888428713537194          1.0000   
         H         H         1.0       0.3622712917174097  0.5807927533356044  0.37349196756914704          1.0000   
         H         H         1.0       0.4246457163841473  0.7049424369309095  0.3851210349330833 1.0000   
         H         H         1.0       0.4250660496844784  0.756694861302893   0.41384470899594056          1.0000   
         H         H         1.0       0.3445352102846532  0.7117785936319402  0.4656889954463706 1.0000   
         H         H         1.0       0.33945788758337014           0.6679042074749167 0.43153255183997274          1.0000   
         H         H         1.0       0.5070892609520116  0.743590388959798   0.4819374868438037 1.0000   
         H         H         1.0       0.4643690550086527  0.7774306369191003  0.4628639470952195 1.0000   
         H         H         1.0       0.3897892082766798  0.718939030714578   0.50751745002995   1.0000   
         H         H         1.0       0.4340730960070053  0.6799993879205369  0.5244613257716756 1.0000   
         H         H         1.0       0.3186446441322225  0.7734089473222322  0.4614159347400302 1.0000   
         H         H         1.0       0.2774067627424241  0.7771283230604585  0.497505183813839  1.0000   
         H         H         1.0       0.3534641305319879  0.8044578684942956  0.557982738780759  1.0000   
         H         H         1.0       0.3963901483321797  0.7886761725773478  0.5241958717065577 1.0000   
         H         H         1.0       0.42700988674648127           0.8242779012432141 0.48910714976812947          1.0000   
         H         H         1.0       0.43539656548026245           0.8813153081104023 0.4717010937764941 1.0000   
         H         H         1.0       0.37074063042884925           0.856605648373873  0.40123202793503004          1.0000   
         H         H         1.0       0.36541816692810974           0.8007310176328979 0.41950477647410483          1.0000   
         C         C         1.0       0.4100563180961773  0.8533035003825332  0.7192339508653895 1.0000   
         C         C         1.0       0.440730461284343   0.8395803277764082  0.7301149697955693 1.0000   
         C         C         1.0       0.44388672603467233           0.8059587130733514 0.7369885659431493 1.0000   
         C         C         1.0       0.4155924077309283  0.7843269093166843  0.7364423709932876 1.0000   
         C         C         1.0       0.38619879838759463           0.7969621959191181 0.7256100139528726 1.0000   
         C         C         1.0       0.3828904856196902  0.8308423091827163  0.717152566250816  1.0000   
         H         H         1.0       0.4641093970407834  0.8536458997842284  0.7281485569911667 1.0000   
         H         H         1.0       0.46850955698630864           0.7959024691159439 0.7389709978663908 1.0000   
         H         H         1.0       0.36600307580570235           0.7783388838542686 0.7219498863916799 1.0000   
         H         H         1.0       0.3597285674313701  0.8382087987329047  0.7071958357261324 1.0000   
         C         C         1.0       0.3692171392285157  0.7506000233076109  0.781104988970755  1.0000   
         C         C         1.0       0.38849354485686777           0.7296570294190639 0.7643507638879427 1.0000   
         C         C         1.0       0.37973400591094814           0.6958269832221209 0.7644441195292948 1.0000   
         C         C         1.0       0.3576528177130058  0.682384847982021   0.7846841367083612 1.0000   
         C         C         1.0       0.33854356285653947           0.7042033651859987 0.8015795573178855 1.0000   
         C         C         1.0       0.34381942363750156           0.7386240044922201 0.7993622682752392 1.0000   
         C         C         1.0       0.4189677701696855  0.7431037807147288  0.7434903323418186 1.0000   
         C         C         1.0       0.45015334824875486           0.7296753731215302 0.7622857831004329 1.0000   
         C         C         1.0       0.46110101559503347           0.6962003714079087 0.7564333539195817 1.0000   
         C         C         1.0       0.47756096338587734           0.676829882316192  0.7771687550013435 1.0000   
         C         C         1.0       0.4842520078909093  0.6920968807600271  0.8034779218327127 1.0000   
         C         C         1.0       0.477138589188135   0.7270603831540186  0.8076360242218272 1.0000   
         C         C         1.0       0.4617488274616592  0.7457002536609664  0.7858492102199882 1.0000   
         C         C         1.0       0.39273588981550345           0.7145900658144013 0.6973054683925829 1.0000   
         C         C         1.0       0.3947750380503388  0.7081865594180159  0.6677770459067288 1.0000   
         C         C         1.0       0.42204526176231943           0.7184557908672125 0.6517601371240521 1.0000   
         C         C         1.0       0.4501245225356823  0.7299377877988343  0.6665773689075892 1.0000   
         C         C         1.0       0.4487160539434845  0.7359862301720073  0.6953355363021763 1.0000   
         C         C         1.0       0.41990666103566004           0.7282559533725479 0.7113832912522304 1.0000   
         C         C         1.0       0.419641638398772   0.7199943539765009  0.6173237872454187 1.0000   
         C         C         1.0       0.47555517174551126           0.6241185483384507 0.5989040444566505 1.0000   
         C         C         1.0       0.44018318699093334           0.6221487874053668 0.6012885853320803 1.0000   
         C         C         1.0       0.42184797086196923           0.6519603853709587 0.6066919183980527 1.0000   
         C         C         1.0       0.437984474117507   0.6840676643833202  0.6094004227594085 1.0000   
         C         C         1.0       0.47249510956499013           0.6834415467410769 0.6084919115476115 1.0000   
         C         C         1.0       0.49163615255888543           0.6554190465450427 0.5998979284448158 1.0000   
         C         C         1.0       0.4375294050617556  0.7544878007038333  0.6041456558481935 1.0000   
         C         C         1.0       0.43826333817525226           0.7862608290269432 0.6172992554076302 1.0000   
         C         C         1.0       0.4565980428107586  0.8120661861831523  0.605211151358981  1.0000   
         C         C         1.0       0.47406829393665934           0.8079508817085005 0.5800579535410201 1.0000   
         C         C         1.0       0.4693277871477326  0.7774009657393781  0.5650975080444542 1.0000   
         C         C         1.0       0.45295081994532443           0.7511166684925845 0.5775902121184486 1.0000   
         C         C         1.0       0.37344404883392024           0.7085420526303805 0.5785776659729389 1.0000   
         C         C         1.0       0.34188454298457077           0.7142629014947852 0.567679323881108  1.0000   
         C         C         1.0       0.32002316886006466           0.7369240105096171 0.5816206469241094 1.0000   
         C         C         1.0       0.3298538004994143  0.7537861754216764  0.6061157355689478 1.0000   
         C         C         1.0       0.36160175776691006           0.7485016501845239 0.6154643092002705 1.0000   
         C         C         1.0       0.38474877296548576           0.725164303530775  0.6032868944158393 1.0000   
         H         H         1.0       0.3761646875985196  0.7782894934714819  0.7816813197585558 1.0000   
         H         H         1.0       0.39155672543153247           0.6749791217806421 0.7507592358860045 1.0000   
         H         H         1.0       0.3562946157782569  0.6545756814416502  0.7880541609019949 1.0000   
         H         H         1.0       0.32938797598381453           0.7564082015187471 0.8133629063196052 1.0000   
         H         H         1.0       0.45129109502733467           0.6830614605167646 0.7386391369348625 1.0000   
         H         H         1.0       0.48015122492544754           0.6488464057454899 0.7734390505387004 1.0000   
         H         H         1.0       0.486501625543908   0.7394568605148071  0.8267673632758634 1.0000   
         H         H         1.0       0.45607381775828076           0.7725612651653779 0.7899422579579182 1.0000   
         H         H         1.0       0.3700734304110587  0.7127228757839306  0.7099326516711619 1.0000   
         H         H         1.0       0.37253491594733873           0.6970667292429845 0.6574529632441631 1.0000   
         H         H         1.0       0.4712845003261556  0.7379555665577242  0.654704312537015  1.0000   
         H         H         1.0       0.4692978716879136  0.7512046359366028  0.7032506625153601 1.0000   
         H         H         1.0       0.43018707523169    0.597189996249286   0.6006026618085629 1.0000   
         H         H         1.0       0.395128645716011   0.650273571460146   0.6087612168557537 1.0000   
         H         H         1.0       0.48731020608143644           0.7068875072404038 0.6106164306225267 1.0000   
         H         H         1.0       0.5188643585591207  0.6591577870752906  0.598214311386658  1.0000   
         H         H         1.0       0.42736256896150643           0.7927728429634657 0.6389112487982676 1.0000   
         H         H         1.0       0.4577168656458982  0.8360591019583272  0.6173222205209126 1.0000   
         H         H         1.0       0.48344739735068576           0.7745074902087735 0.546028031270851  1.0000   
         H         H         1.0       0.45173385314652115           0.7273008129367272 0.5652279737207803 1.0000   
         H         H         1.0       0.3860334200070361  0.6878603513178736  0.5683696936055607 1.0000   
         H         H         1.0       0.3317728504693204  0.6990539879903525  0.5494263497171157 1.0000   
         H         H         1.0       0.31364761618797266           0.7732558825010961 0.615247855571055  1.0000   
         H         H         1.0       0.3684075528486127  0.7637298467266005  0.6339298979940848 1.0000   
         C         C         1.0       0.6276311592203698  0.34510080749096816           0.4025328170966421 1.0000   
         C         C         1.0       0.633432251135427   0.3652217343990339  0.42594775322197664          1.0000   
         C         C         1.0       0.6086919951361741  0.38618456365572157           0.43801176865054436          1.0000   
         C         C         1.0       0.5790965813751805  0.3909698512582375  0.4241882548599437 1.0000   
         C         C         1.0       0.5710085097109514  0.3690235316281564  0.4017200720963116 1.0000   
         C         C         1.0       0.594522267859449   0.34755560575152705           0.39138781721059446          1.0000   
         H         H         1.0       0.6578897833510362  0.36537921600335027           0.4349430102631453 1.0000   
         H         H         1.0       0.61592748674928    0.40238435374008935           0.45661255757712865          1.0000   
         H         H         1.0       0.549235078612638   0.3742345105238132  0.3888119043059151 1.0000   
         H         H         1.0       0.5893302018037214  0.3321999911038591  0.37293852324106935          1.0000   
         C         C         1.0       0.5422432490498659  0.44517725823373117           0.38983095785629523          1.0000   
         C         C         1.0       0.5301615712203166  0.4362563733382874  0.4168434150350926 1.0000   
         C         C         1.0       0.49731971518842893           0.4472864229957863 0.42415015551304236          1.0000   
         C         C         1.0       0.4760405165133692  0.4642939065581246  0.4049336991867681 1.0000   
         C         C         1.0       0.48911423951912103           0.47038555790143993          0.3781432435686674 1.0000   
         C         C         1.0       0.5217377147073704  0.4628338068109669  0.3713693093262075 1.0000   
         C         C         1.0       0.5519536349343471  0.4152816441992505  0.4383476670244076 1.0000   
         C         C         1.0       0.5661348431566215  0.4476795535358109  0.4571331942233473 1.0000   
         C         C         1.0       0.5474692744740236  0.4631600243290219  0.4796404270429762 1.0000   
         C         C         1.0       0.5614435894758043  0.49019743510850444           0.49321629763965824          1.0000   
         C         C         1.0       0.5914798084640637  0.5041226061134704  0.48467689265413577          1.0000   
         C         C         1.0       0.6069130929495354  0.4913506102032209  0.4602784192686803 1.0000   
         C         C         1.0       0.5930435723850523  0.46503075160156937           0.4456270724710374 1.0000   
         C         C         1.0       0.5012167759875292  0.37042627554281576           0.4389049113313651 1.0000   
         C         C         1.0       0.4733015904093543  0.3576259157764576  0.45244138970255965          1.0000   
         C         C         1.0       0.46949865847833555           0.36239457068986747          0.48166674694727346          1.0000   
         C         C         1.0       0.49695918887168344           0.3741564753568504 0.4973586101132888 1.0000   
         C         C         1.0       0.526664204123241   0.38491531225138464           0.4842664002047167 1.0000   
         C         C         1.0       0.5264020264452726  0.38758082812954303           0.4541927581855538 1.0000   
         C         C         1.0       0.4332491756151187  0.3607193854284403  0.49298708865870583          1.0000   
         C         C         1.0       0.4123512702993059  0.468164048530695   0.46669760271929067          1.0000   
         C         C         1.0       0.4051023288390731  0.4406373262377204  0.4489930359685509 1.0000   
         C         C         1.0       0.40891552639945394           0.40789599458382575          0.45829638692390623          1.0000   
         C         C         1.0       0.42326771252199535           0.40028705060929076          0.48519183184164577          1.0000   
         C         C         1.0       0.4326851209856329  0.4280042890192867  0.5013537904809195 1.0000   
         C         C         1.0       0.4249932710527453  0.46065065801031485           0.49344669467081703          1.0000   
         C         C         1.0       0.4291424145325739  0.3499326596773318  0.5254841423307807 1.0000   
         C         C         1.0       0.44955540461753035           0.3233717278860524 0.5373734533225298 1.0000   
         C         C         1.0       0.44695658607982847           0.31586285468065695          0.5662966780160651 1.0000   
         C         C         1.0       0.42434312751960046           0.3328121931687469 0.5833880450363274 1.0000   
         C         C         1.0       0.4048015786286451  0.35783835974963357           0.5720034774239519 1.0000   
         C         C         1.0       0.40657114769550456           0.3659473832759272 0.5433635720203237 1.0000   
         C         C         1.0       0.37535483554953486           0.3356536918137067 0.4767205911572673 1.0000   
         C         C         1.0       0.3557810502680082  0.3095629007301358  0.4689760062140956 1.0000   
         C         C         1.0       0.3677800656851153  0.2777419183972641  0.46265916488279724          1.0000   
         C         C         1.0       0.40283322738508803           0.27255368304890365          0.46443258739564586          1.0000   
         C         C         1.0       0.42254937932113673           0.2993440514351945 0.47383633920438495          1.0000   
         C         C         1.0       0.40982448619542783           0.3316002135989092 0.4805594126280711 1.0000   
         H         H         1.0       0.5688545145430189  0.4409328375804613  0.38286790341684956          1.0000   
         H         H         1.0       0.48536145768990613           0.44242014434426674          0.4445069345174634 1.0000   
         H         H         1.0       0.4511217677310538  0.47144150763881915           0.4079878001297351 1.0000   
         H         H         1.0       0.532090130453029   0.4698305142009909  0.35060354208559685          1.0000   
         H         H         1.0       0.5228402770459698  0.4540521963322252  0.486234494099294  1.0000   
         H         H         1.0       0.5517573142251746  0.5014686119623775  0.5125924383901952 1.0000   
         H         H         1.0       0.631383596830801   0.5011282090121912  0.45313359540515863          1.0000   
         H         H         1.0       0.6072006754640658  0.45389556052212826           0.42903327391922574          1.0000   
         H         H         1.0       0.49958334710331365           0.3733133011949225 0.4167617919207413 1.0000   
         H         H         1.0       0.4547298120436151  0.3472060935731135  0.4382582500696584 1.0000   
         H         H         1.0       0.4936569564937311  0.37684327128358486           0.5194078430963529 1.0000   
         H         H         1.0       0.5477021494385549  0.39481727445745596           0.49696880467840715          1.0000   
         H         H         1.0       0.3957973371976434  0.4458964388359217  0.4285010855169588 1.0000   
         H         H         1.0       0.40613068572339056           0.38761733234685614          0.4432040502732616 1.0000   
         H         H         1.0       0.45024684036805673           0.42555073030563967          0.519934246325602  1.0000   
         H         H         1.0       0.4342338309282254  0.48485810364077964           0.5020173088696467 1.0000   
         H         H         1.0       0.4696959201684534  0.3107899103145739  0.527630790928431  1.0000   
         H         H         1.0       0.4616789800891913  0.2956915742551944  0.5765464665706903 1.0000   
         H         H         1.0       0.3843599485818467  0.36518319165829416           0.5848668515062518 1.0000   
         H         H         1.0       0.39051529892419845           0.38769044681642034          0.5363708146917044 1.0000   
         H         H         1.0       0.3651800821887017  0.360010630785747   0.4831894184279548 1.0000   
         H         H         1.0       0.32865066198503895           0.31484905449270806          0.4695202447110133 1.0000   
         H         H         1.0       0.41462951541048954           0.24810115072419525          0.46051258248238075          1.0000   
         H         H         1.0       0.44849570434684255           0.293574445816802  0.47754312757109457          1.0000   
         C         C         1.0       0.4562441621535958  0.36793827903560433           0.7672778526259578 1.0000   
         C         C         1.0       0.45695271302705476           0.4022237127765602 0.7753170740009035 1.0000   
         C         C         1.0       0.48760478039072525           0.4184845697417989 0.7804555694222239 1.0000   
         C         C         1.0       0.5170386841511597  0.39975575741400093           0.7785121805234748 1.0000   
         C         C         1.0       0.5164345682191527  0.3665867556431288  0.7691891382718271 1.0000   
         C         C         1.0       0.48613140895660656           0.3500744843369242 0.7669981258262163 1.0000   
         H         H         1.0       0.4340417231523146  0.41745487072842946           0.7771636178469309 1.0000   
         H         H         1.0       0.48419600517699407           0.44598344981137233          0.7843110154435038 1.0000   
         H         H         1.0       0.5391281375429676  0.355005659361816   0.7626279028292626 1.0000   
         H         H         1.0       0.48924485649188165           0.32363733533042877          0.7597738763198285 1.0000   
         C         C         1.0       0.576520747689313   0.3679935046700169  0.812931382918971  1.0000   
         C         C         1.0       0.5821744663099027  0.3944377916246761  0.7947834781406717 1.0000   
         C         C         1.0       0.6163345262816742  0.3984830907537746  0.7867269582454026 1.0000   
         C         C         1.0       0.6415213573156339  0.37648904605814487           0.7931388219474714 1.0000   
         C         C         1.0       0.6342686015239777  0.348630168123303   0.8103548153215229 1.0000   
         C         C         1.0       0.601821454163355   0.3454273772150874  0.8204654631162559 1.0000   
         C         C         1.0       0.5538195752101367  0.41780424665150967           0.7802413374711881 1.0000   
         C         C         1.0       0.5540509707737689  0.45027220498802667           0.8003499609200553 1.0000   
         C         C         1.0       0.5768885315694988  0.4767801304287023  0.7938540590272349 1.0000   
         C         C         1.0       0.5773481861258122  0.5050441081890579  0.8097740783767653 1.0000   
         C         C         1.0       0.5564660457874486  0.5070606734449051  0.8345402094215449 1.0000   
         C         C         1.0       0.5370794608739651  0.48056830540716555           0.8423103045710039 1.0000   
         C         C         1.0       0.5360293040815958  0.45117422365989834           0.8257664965385543 1.0000   
         C         C         1.0       0.5749836792354971  0.4045519108125106  0.7276774140313783 1.0000   
         C         C         1.0       0.5703326551748878  0.40793765551307243           0.6987663816292196 1.0000   
         C         C         1.0       0.5512032153183385  0.43505773181907165           0.687218623161417  1.0000   
         C         C         1.0       0.540139906941637   0.4599106851443805  0.7073098361206969 1.0000   
         C         C         1.0       0.5414429156947466  0.45394895042998445           0.7366443389937148 1.0000   
         C         C         1.0       0.5609046103277873  0.42759143335404565           0.7471346824453478 1.0000   
         C         C         1.0       0.5443228631046513  0.435243684933677   0.6531912758703512 1.0000   
         C         C         1.0       0.6253527188632854  0.3806934433837073  0.6098371403544919 1.0000   
         C         C         1.0       0.5926744702950585  0.3751117137077309  0.60048192632892   1.0000   
         C         C         1.0       0.5668745417136549  0.3935384551503336  0.6116756307004132 1.0000   
         C         C         1.0       0.5726615146727834  0.41764564001249577           0.633244227952738  1.0000   
         C         C         1.0       0.6055269983136974  0.4263360825391668  0.6391397190605611 1.0000   
         C         C         1.0       0.6316104734829946  0.4050834826741453  0.6300207849075243 1.0000   
         C         C         1.0       0.537681728669807   0.47525976392219055           0.6421037277865926 1.0000   
         C         C         1.0       0.5085539268045345  0.4920961257640252  0.6514726288367076 1.0000   
         C         C         1.0       0.49820924544488976           0.5244711388473725 0.6422112309398006 1.0000   
         C         C         1.0       0.5210598988559402  0.5436124622369977  0.6278028458842492 1.0000   
         C         C         1.0       0.5523011594915446  0.5311255379542847  0.6193241231207423 1.0000   
         C         C         1.0       0.559460527591752   0.4964592340374247  0.6255161051583565 1.0000   
         C         C         1.0       0.4877573257581095  0.4202023469773489  0.6271266105955664 1.0000   
         C         C         1.0       0.4617988565334343  0.3993075244512394  0.6203775178143364 1.0000   
         C         C         1.0       0.4534924946314818  0.3733067938627122  0.6378087916720082 1.0000   
         C         C         1.0       0.4747554562438099  0.36476216429504865           0.659751871095041  1.0000   
         C         C         1.0       0.5034928684531743  0.3845508784375117  0.6652950049138544 1.0000   
         C         C         1.0       0.5103603331036848  0.41322325500064533           0.649360755561269  1.0000   
         H         H         1.0       0.5519787901173753  0.3626218600365789  0.8213772260786377 1.0000   
         H         H         1.0       0.6232898407043176  0.41954466058178935           0.7715413042506755 1.0000   
         H         H         1.0       0.665618991411118   0.3781394372695703  0.7863023775447093 1.0000   
         H         H         1.0       0.5922392233304831  0.32319195101674386           0.8335822433197119 1.0000   
         H         H         1.0       0.5959198950856367  0.4749276479028625  0.7763307843126513 1.0000   
         H         H         1.0       0.5920299718318444  0.5273427417504375  0.8043186383515142 1.0000   
         H         H         1.0       0.5220791532927462  0.48273116552695106           0.8612748952580798 1.0000   
         H         H         1.0       0.5225891495194268  0.428535176280461   0.8337643017343309 1.0000   
         H         H         1.0       0.587680598760776   0.38093260771496407           0.7338146698712797 1.0000   
         H         H         1.0       0.5797061404986008  0.386723331288087   0.6861039511329119 1.0000   
         H         H         1.0       0.523950602903782   0.4819641608477336  0.7007337021190949 1.0000   
         H         H         1.0       0.5290013057439454  0.4719877535257121  0.7517282284765813 1.0000   
         H         H         1.0       0.5885703189061918  0.3556608174695364  0.5849362477866795 1.0000   
         H         H         1.0       0.5422936203649683  0.3837956917806368  0.6041033910230341 1.0000   
         H         H         1.0       0.6128637886693394  0.446349306914957   0.655304150703626  1.0000   
         H         H         1.0       0.6552757538289563  0.40819192124308257           0.6397606699669576 1.0000   
         H         H         1.0       0.48924447221959133           0.47789625172229455          0.6629688825745731 1.0000   
         H         H         1.0       0.4772850909276461  0.534764791378423   0.6544435650320852 1.0000   
         H         H         1.0       0.5706808065558764  0.5465573375499668  0.6087982933760672 1.0000   
         H         H         1.0       0.5835681687189921  0.48499365694991914           0.6179400189672587 1.0000   
         H         H         1.0       0.4945401461997108  0.43985713539046406           0.6116290588473592 1.0000   
         H         H         1.0       0.44542743103325694           0.40574559815213623          0.6025626135502076 1.0000   
         H         H         1.0       0.4701899500059366  0.3412166062326971  0.6716184253637283 1.0000   
         H         H         1.0       0.5180231128196724  0.37554639640660753           0.6829221981619762 1.0000   
         C         C         1.0       0.9807695413307271  0.34386134072884833           0.8548996992907131 1.0000   
         C         C         1.0       0.9999884528739258  0.3543579267372423  0.8316914814999671 1.0000   
         C         C         1.0       0.010733055885868925          0.331490645040148  0.8101745745746237 1.0000   
         C         C         1.0       0.003340205235072391          0.2970203395901392 0.8145838669389077 1.0000   
         C         C         1.0       0.9840321288671472  0.2865466339282328  0.8385062312214099 1.0000   
         C         C         1.0       0.9710981711703505  0.31079028850877816           0.8580169390785726 1.0000   
         H         H         1.0       0.007687168722729787          0.38093847983544277          0.8287428422695166 1.0000   
         H         H         1.0       0.024082569732114978          0.3381681642439424 0.7908563058697871 1.0000   
         H         H         1.0       0.9800225666545506  0.26009967331455724           0.8423054193940528 1.0000   
         H         H         1.0       0.9550966915043507  0.30120262524029146           0.8745068053433178 1.0000   
         C         C         1.0       0.038438520529051834          0.22579312898219697          0.8313317953292086 1.0000   
         C         C         1.0       0.020105690109828878          0.2324145652348944 0.8068025672185432 1.0000   
         C         C         1.0       0.007459015326069629          0.20305920713367495          0.7921806111047885 1.0000   
         C         C         1.0       0.013363869187714705          0.1700710535117784 0.8025663060628855 1.0000   
         C         C         1.0       0.03052172196819325           0.16615398048450516          0.8269710203437091 1.0000   
         C         C         1.0       0.04463991735624284           0.1941300415485762 0.8407629470534478 1.0000   
         C         C         1.0       0.013172728423965996          0.268457865821792  0.7932772356466129 1.0000   
         C         C         1.0       0.04870276515647487           0.27082871431413   0.7761348266564655 1.0000   
         C         C         1.0       0.053382861256604075          0.2554534668828693 0.7498593268779662 1.0000   
         C         C         1.0       0.08354148815819379           0.25045855533550565          0.7377194624060452 1.0000   
         C         C         1.0       0.11257757122620626           0.2662534760073538 0.7508716692062374 1.0000   
         C         C         1.0       0.10782793261631288           0.2796079944115573 0.7777723967076616 1.0000   
         C         C         1.0       0.07698902681613731           0.28277372222294056          0.7905852195726233 1.0000   
         C         C         1.0       0.9508146304682649  0.2535705708641153  0.7768326667056891 1.0000   
         C         C         1.0       0.9262519540407081  0.2539673835720375  0.7555431581182377 1.0000   
         C         C         1.0       0.9279391159445238  0.2754418762053746  0.7325076611066523 1.0000   
         C         C         1.0       0.9560621986009062  0.29591362498444146           0.7305341327316311 1.0000   
         C         C         1.0       0.9810499512657563  0.2954819743932614  0.7498995267844132 1.0000   
         C         C         1.0       0.9814700204124895  0.27064696978629005           0.7711840974865142 1.0000   
         C         C         1.0       0.9004183291791816  0.27412211578330953           0.7082590133374642 1.0000   
         C         C         1.0       0.9572543932285558  0.1923593643669414  0.6639854188131301 1.0000   
         C         C         1.0       0.9287372164027451  0.18539631537047654           0.6796226768860121 1.0000   
         C         C         1.0       0.9099236384747642  0.21159267834401177           0.6923477823787995 1.0000   
         C         C         1.0       0.9198609746050074  0.2448834707921503  0.6895625859917939 1.0000   
         C         C         1.0       0.9493042925381894  0.25143353809508856           0.6724410582654939 1.0000   
         C         C         1.0       0.9677783541215184  0.22543731870269954           0.6598720156424444 1.0000   
         C         C         1.0       0.8940240083505994  0.30688408054342325           0.6890667079656381 1.0000   
         C         C         1.0       0.8974700650660018  0.3399428446765064  0.7013489763661872 1.0000   
         C         C         1.0       0.8951312768481047  0.36886281959817413           0.6841229326515332 1.0000   
         C         C         1.0       0.8865050236541335  0.36523999449708205           0.6565533387062372 1.0000   
         C         C         1.0       0.8797408896318644  0.3328957735238509  0.6445171771290858 1.0000   
         C         C         1.0       0.8831907981275373  0.30449014121179907           0.6616982159690936 1.0000   
         C         C         1.0       0.83760804188357    0.2527160257448904  0.7022684357548232 1.0000   
         C         C         1.0       0.8041667482020978  0.25945542688324136           0.7084516037198966 1.0000   
         C         C         1.0       0.7952328758586432  0.2785154970600119  0.7315878855234533 1.0000   
         C         C         1.0       0.8192736091257644  0.29223046915772066           0.7491145515271161 1.0000   
         C         C         1.0       0.8525693353129118  0.2874501536024905  0.7421084563411402 1.0000   
         C         C         1.0       0.8622159646167762  0.26770550973354884           0.7187069866555934 1.0000   
         H         H         1.0       0.047875011196399475          0.24671400341960256          0.8422500225736438 1.0000   
         H         H         1.0       0.9931918282265354  0.20210935259705584           0.7732198131057665 1.0000   
         H         H         1.0       0.004716439049820886          0.14583363056149357          0.7932311109566895 1.0000   
         H         H         1.0       0.06216390535332006           0.18842552152270864          0.8576252641554322 1.0000   
         H         H         1.0       0.032013628846094155          0.24568354877053156          0.7382549158851944 1.0000   
         H         H         1.0       0.0843348236321408  0.23616915667580649           0.7184940087197444 1.0000   
         H         H         1.0       0.13038699633556022           0.2869172928794123 0.790998336533889  1.0000   
         H         H         1.0       0.07642931362882402           0.2951893488013847 0.8124225195256797 1.0000   
         H         H         1.0       0.948523455035889   0.23797222696923812           0.7960783911674305 1.0000   
         H         H         1.0       0.9071035111095948  0.23268289644302506           0.7573899951054245 1.0000   
         H         H         1.0       0.9594934336967276  0.31006188793770845           0.7114949840916274 1.0000   
         H         H         1.0       0.0017754810388752595         0.31552948034668016          0.7479573501438793 1.0000   
         H         H         1.0       0.919819420265075   0.15844803799917137           0.6831737439604764 1.0000   
         H         H         1.0       0.8896569502625408  0.2031618398301764  0.7043950662222226 1.0000   
         H         H         1.0       0.9560456329741641  0.27991590484704554           0.6672510416857096 1.0000   
         H         H         1.0       0.990744754376944   0.228864691615098   0.6473288674366031 1.0000   
         H         H         1.0       0.9065127604189314  0.34494277059331097           0.7233355420854735 1.0000   
         H         H         1.0       0.9014639085406577  0.39437975731877967           0.6921354060492974 1.0000   
         H         H         1.0       0.8725454078788414  0.3319578287938755  0.6221346429286249 1.0000   
         H         H         1.0       0.8785746705827616  0.28004750435688675           0.6518628248499146 1.0000   
         H         H         1.0       0.8410970114898456  0.24206171916837416           0.6819073180034567 1.0000   
         H         H         1.0       0.7863024046877913  0.2530241419057756  0.6936492783608289 1.0000   
         H         H         1.0       0.8108923630909787  0.3093243237510199  0.7668249365864006 1.0000   
         H         H         1.0       0.8725869125918274  0.3017899045458135  0.7523053390066508 1.0000   
         C         C         1.0       0.8040385393103344  0.2662884091052203  0.42318517829459196          1.0000   
         C         C         1.0       0.8203333772156842  0.23414008988031068           0.42615759462446917          1.0000   
         C         C         1.0       0.8544708535169913  0.23377475815633175           0.42899348150095007          1.0000   
         C         C         1.0       0.8730214999267696  0.26395405942299555           0.4284867455491983 1.0000   
         C         C         1.0       0.8567644379207614  0.29455613053791924           0.4285737140769297 1.0000   
         C         C         1.0       0.8223352382173632  0.2947776924761014  0.42640194075185245          1.0000   
         H         H         1.0       0.8052081190079191  0.21112688672358745           0.4271202562580956 1.0000   
         H         H         1.0       0.8645684170442799  0.20808031013374106           0.43197042632507443          1.0000   
         H         H         1.0       0.8675271846915031  0.31900664902715276           0.42772072699555674          1.0000   
         H         H         1.0       0.8090389624725489  0.31829811026359756           0.42533468362275106          1.0000   
         C         C         1.0       0.9106121205155342  0.2975988409418949  0.3803458906968032 1.0000   
         C         C         1.0       0.9263088420781335  0.2908232496557391  0.40575933053515606          1.0000   
         C         C         1.0       0.9550057892821334  0.3099084528315337  0.41145309602552854          1.0000   
         C         C         1.0       0.9653460927897455  0.33521981187783734           0.39265212293982277          1.0000   
         C         C         1.0       0.9497251956393841  0.34063966227186293           0.3671340961421361 1.0000   
         C         C         1.0       0.9206766228186223  0.32208265016060916           0.36115374699410846          1.0000   
         C         C         1.0       0.9132124280058669  0.2638836558593151  0.42747635126680456          1.0000   
         C         C         1.0       0.9297610964699129  0.22949634694000395           0.410486010056663  1.0000   
         C         C         1.0       0.9174396345754346  0.21465582669735697           0.3863598047686931 1.0000   
         C         C         1.0       0.9350576304318501  0.19043995911827702           0.3692172108302079 1.0000   
         C         C         1.0       0.9688514796500258  0.1853709604805749  0.37520005672926077          1.0000   
         C         C         1.0       0.9829054958908203  0.2000634955827161  0.39953847327834496          1.0000   
         C         C         1.0       0.9632711413420079  0.22083753889770114           0.4166006369699746 1.0000   
         C         C         1.0       0.9298473218909865  0.296404642874746   0.47474442148027757          1.0000   
         C         C         1.0       0.9347449147266674  0.2956756960762224  0.503825738917362  1.0000   
         C         C         1.0       0.9304876178136846  0.2660614240805497  0.519450182160679  1.0000   
         C         C         1.0       0.9202776918015598  0.23738951402182043           0.5041957341574983 1.0000   
         C         C         1.0       0.9187536083586899  0.23542409942409434           0.47504066661943767          1.0000   
         C         C         1.0       0.9230111228396166  0.26603547033027336           0.45993847803706844          1.0000   
         C         C         1.0       0.9347931287733245  0.2658239972761366  0.5525523955378268 1.0000   
         C         C         1.0       0.03166650723949305           0.2077124638547781 0.5489191019180695 1.0000   
         C         C         1.0       0.029788969117611197          0.24276897454526694          0.5412467234573676 1.0000   
         C         C         1.0       0.0005243590501138318         0.26144213670269617          0.5447350084235167 1.0000   
         C         C         1.0       0.9710798253958752  0.24525478564047493           0.5522910741551319 1.0000   
         C         C         1.0       0.9730064970872987  0.21160641260819357           0.5610567121092148 1.0000   
         C         C         1.0       0.002832989491463821          0.19219991288008312          0.558911440718727  1.0000   
         C         C         1.0       0.9052804582676084  0.24650976848167538           0.5688567339043343 1.0000   
         C         C         1.0       0.8740969367704121  0.24201783487041284           0.556580927350506  1.0000   
         C         C         1.0       0.8479331635061907  0.22601560470620005           0.5710362782603581 1.0000   
         C         C         1.0       0.8534342320450107  0.21242334558259018           0.597951081702008  1.0000   
         C         C         1.0       0.8829807938471075  0.22017908829464974           0.6110875944069448 1.0000   
         C         C         1.0       0.9080411130549163  0.23655658976711103           0.5966332534508818 1.0000   
         C         C         1.0       0.9556274704760696  0.3102012152439885  0.5917687512569676 1.0000   
         C         C         1.0       0.9539928499281378  0.34178641124878917           0.6051896744929349 1.0000   
         C         C         1.0       0.9297385775651267  0.36487930553454606           0.5983408676999188 1.0000   
         C         C         1.0       0.906768362556476   0.3562984478534843  0.5764554083727255 1.0000   
         C         C         1.0       0.9091452258972891  0.32461017536048514           0.5634409281600797 1.0000   
         C         C         1.0       0.9356364991412313  0.30183107174671747           0.5695908367628978 1.0000   
         H         H         1.0       0.8885244457129884  0.28302999409541124           0.3734673027844524 1.0000   
         H         H         1.0       0.9678462754199814  0.3079935463173562  0.4310829569078424 1.0000   
         H         H         1.0       0.9838905485123964  0.35334043778542645           0.40040141090888887          1.0000   
         H         H         1.0       0.9075852410277352  0.32389863631315313           0.34151061561800594          1.0000   
         H         H         1.0       0.8915823135008465  0.21670894588023357           0.3791654102148475 1.0000   
         H         H         1.0       0.9236659656304973  0.17909579937439488           0.3501388666717734 1.0000   
         H         H         1.0       0.010128566463585731          0.19674358120657587          0.4042961642811604 1.0000   
         H         H         1.0       0.9767268376063188  0.2353302702949862  0.43350320157862493          1.0000   
         H         H         1.0       0.9313148639660902  0.3233397052590822  0.46738515656037316          1.0000   
         H         H         1.0       0.9473741038140647  0.3180614416904241  0.5135632284374224 1.0000   
         H         H         1.0       0.9135297660199179  0.21196455425777636           0.514839961949998  1.0000   
         H         H         1.0       0.9128038119639366  0.21289009491009558           0.4635197181156499 1.0000   
         H         H         1.0       0.051104081317076   0.2579030070201568  0.5318527205049436 1.0000   
         H         H         1.0       0.9998401766832224  0.2884312058904001  0.5395385711679909 1.0000   
         H         H         1.0       0.9498345735884168  0.1987141507859377  0.5670440710901781 1.0000   
         H         H         1.0       0.004228021771945699          0.16489488099147967          0.5623743269531959 1.0000   
         H         H         1.0       0.8654406396732327  0.24903974743340013           0.5348702150380831 1.0000   
         H         H         1.0       0.8251207391482381  0.2222790563434836  0.5597436265760275 1.0000   
         H         H         1.0       0.8886963912480631  0.21726116419873528           0.6338454995633938 1.0000   
         H         H         1.0       0.9314877137409631  0.23978277731215428           0.6072319194068028 1.0000   
         H         H         1.0       0.9744622172196002  0.29295752349092763           0.5992955379419713 1.0000   
         H         H         1.0       0.970452270586125   0.34502377122150124           0.6238128140737189 1.0000   
         H         H         1.0       0.8871745280850719  0.37473985491977435           0.5728978934569642 1.0000   
         H         H         1.0       0.8888864773052748  0.31732159247385144           0.5494661644761231 1.0000   
         C         C         1.0       0.17878356966593076           0.8536605978165688 0.8547936919730318 1.0000   
         C         C         1.0       0.15896211375474006           0.8420392907385027 0.833711743138036  1.0000   
         C         C         1.0       0.1474298271809432  0.864312203674889   0.8133930145818465 1.0000   
         C         C         1.0       0.15252025195531954           0.8998414914176875 0.8146221043860473 1.0000   
         C         C         1.0       0.17070015398409066           0.9120128204001025 0.8378241651633713 1.0000   
         C         C         1.0       0.18332652645511216           0.8889037772809606 0.8576167757709577 1.0000   
         H         H         1.0       0.15373224077010036           0.8148900040663325 0.8290956665643099 1.0000   
         H         H         1.0       0.13441128253492668           0.8542555529068577 0.7956749420636969 1.0000   
         H         H         1.0       0.17526705178496124           0.9397994620974196 0.843197341804945  1.0000   
         H         H         1.0       0.19576227636306023           0.8976847468499158 0.8766898986786895 1.0000   
         C         C         1.0       0.11253927794219455           0.9704664664783061 0.8287559017985694 1.0000   
         C         C         1.0       0.13150153956642247           0.9637304783912005 0.803744851628728  1.0000   
         C         C         1.0       0.14280352538867508           0.9920923828406656 0.7873102396018603 1.0000   
         C         C         1.0       0.13795703135624895           0.023980713210888238         0.7974100601078448 1.0000   
         C         C         1.0       0.1168782257627529  0.02984617532233691           0.8208082367271085 1.0000   
         C         C         1.0       0.1064178713008574  0.0035847334721170743        0.837893636604431  1.0000   
         C         C         1.0       0.13860507564396143           0.9251358214716111 0.7915851298405129 1.0000   
         C         C         1.0       0.10077576324989772           0.9185818498915892 0.7805669078158476 1.0000   
         C         C         1.0       0.09090909321410778           0.9351517919812384 0.7553085242282603 1.0000   
         C         C         1.0       0.058495160904347365          0.9362101263499224 0.7459901793664585 1.0000   
         C         C         1.0       0.033735910682626935          0.9215795642488989 0.7625779627329714 1.0000   
         C         C         1.0       0.041003698247304536          0.9040296366470605 0.7873162253314644 1.0000   
         C         C         1.0       0.07494821000362102           0.9027542501479343 0.7966139381376319 1.0000   
         C         C         1.0       0.19873941985124174           0.9381609288319122 0.7695017403960442 1.0000   
         C         C         1.0       0.2207284026343481  0.9377187704989326  0.7463533065994142 1.0000   
         C         C         1.0       0.21507117456544256           0.9185459664756003 0.7211216331408025 1.0000   
         C         C         1.0       0.18411201653718176           0.9017790808951681 0.7202178141303327 1.0000   
         C         C         1.0       0.16164591901859612           0.9019723581101812 0.7433890747664719 1.0000   
         C         C         1.0       0.16783046483536465           0.9220317005773064 0.7669724303011741 1.0000   
         C         C         1.0       0.24013382462780586           0.9217366165202479 0.6941905991735215 1.0000   
         C         C         1.0       0.18600194044275653           0.011356197676489543         0.6626835118450012 1.0000   
         C         C         1.0       0.21500948905615988           0.014727758869019336         0.6786970272617546 1.0000   
         C         C         1.0       0.23375492350764432           0.9881624688454692 0.6881967826989784 1.0000   
         C         C         1.0       0.22486701357119254           0.9550904454348996 0.6792345232856737 1.0000   
         C         C         1.0       0.19724962994775336           0.9505303350644612 0.660895014064675  1.0000   
         C         C         1.0       0.17701234416330278           0.9789178050733914 0.6544363216854054 1.0000   
         C         C         1.0       0.2414637216014931  0.8887379729179998  0.6727356692274848 1.0000   
         C         C         1.0       0.23162081618162983           0.8572156593602661 0.6802423097214219 1.0000   
         C         C         1.0       0.2262960891350626  0.832635771543719   0.6607262225008309 1.0000   
         C         C         1.0       0.23404918566516641           0.8389225583319636 0.6323975705671535 1.0000   
         C         C         1.0       0.2513598369525514  0.8690509711192135  0.624384783081226  1.0000   
         C         C         1.0       0.2540555277721443  0.8946026954822732  0.6443952688567937 1.0000   
         C         C         1.0       0.30163295393441797           0.9400483287893251 0.6861807217592419 1.0000   
         C         C         1.0       0.3367694346150813  0.9377300267491041  0.6926494599597843 1.0000   
         C         C         1.0       0.3483238668024127  0.9167824801062516  0.7140000109338588 1.0000   
         C         C         1.0       0.3250308404743984  0.8990988527428356  0.73085876184236   1.0000   
         C         C         1.0       0.2915896105468733  0.9012134278857366  0.7256793972668728 1.0000   
         C         C         1.0       0.27908823147621065           0.9205520632726877 0.7031112499296657 1.0000   
         H         H         1.0       0.10166497382665576           0.9505886745701521 0.8422096133882387 1.0000   
         H         H         1.0       0.15324447488553458           0.9894072278865684 0.766308558502858  1.0000   
         H         H         1.0       0.144915491101106   0.04442303730211239           0.7835490839454453 1.0000   
         H         H         1.0       0.093300217964756   0.0063980533452876465        0.8575550730283877 1.0000   
         H         H         1.0       0.10967017952668406           0.9474885250507564 0.7425024681442539 1.0000   
         H         H         1.0       0.05376161784378696           0.9511277128589523 0.7271274915259749 1.0000   
         H         H         1.0       0.02047610448306925           0.8923237556913535 0.8012069646156078 1.0000   
         H         H         1.0       0.08052578828639528           0.8897387407500071 0.8156735603750573 1.0000   
         H         H         1.0       0.2029569314511236  0.9512819434987546  0.7896789308541717 1.0000   
         H         H         1.0       0.24364342096012617           0.9509530646645966 0.7502537078326643 1.0000   
         H         H         1.0       0.17888071661926191           0.8883954119673657 0.7007891650912169 1.0000   
         H         H         1.0       0.13823957669896136           0.8880858649245418 0.7392669113031916 1.0000   
         H         H         1.0       0.224481267915787   0.039987058480509985         0.6817357064574692 1.0000   
         H         H         1.0       0.2536774271886342  0.9928378629529773  0.7020408705184484 1.0000   
         H         H         1.0       0.18885878108628024           0.9256018794764231 0.6535195382899162 1.0000   
         H         H         1.0       0.156406514323271   0.9740750701337141  0.639630058220894  1.0000   
         H         H         1.0       0.2264266160974712  0.8526960598493372  0.7025897457913127 1.0000   
         H         H         1.0       0.2132412423383464  0.8091972003137171  0.6678029883416293 1.0000   
         H         H         1.0       0.25932794440689416           0.8756928933259494 0.602458122932235  1.0000   
         H         H         1.0       0.26802519120702184           0.9184353985910823 0.6375022792863116 1.0000   
         H         H         1.0       0.2943156841260028  0.9542045021700374  0.668479761777831  1.0000   
         H         H         1.0       0.35466195327098354           0.9509477579886435 0.6788032777053938 1.0000   
         H         H         1.0       0.33288752525874554           0.885345940189151  0.7503718781789372 1.0000   
         H         H         1.0       0.27441697603694293           0.8841360701361268 0.7370651226187828 1.0000   
         C         C         1.0       0.34772745615573636           0.9320861254722321 0.40166281351212657          1.0000   
         C         C         1.0       0.3251756717885164  0.9246993938576985  0.3800519377312011 1.0000   
         C         C         1.0       0.2925747165543654  0.9352263285162893  0.3822666805508044 1.0000   
         C         C         1.0       0.2785227212981482  0.9508735013700258  0.4063743678895095 1.0000   
         C         C         1.0       0.3023407148548793  0.9606536070344628  0.42702789764493193          1.0000   
         C         C         1.0       0.3362898976791656  0.9504098201371587  0.4259030744448123 1.0000   
         H         H         1.0       0.33222739256303013           0.9085162894511539 0.3607387326357095 1.0000   
         H         H         1.0       0.2786474170344852  0.9284100070842107  0.36363515711731587          1.0000   
         H         H         1.0       0.29573812247931464           0.9738882995192226 0.446759331646277  1.0000   
         H         H         1.0       0.35368718118954945           0.9567490651968601 0.4450687664315794 1.0000   
         C         C         1.0       0.23176246850422433           0.886442895194808  0.3960071447944047 1.0000   
         C         C         1.0       0.2199483999512754  0.919705969084427   0.39260669719787   1.0000   
         C         C         1.0       0.18809413778297657           0.9218541573481446 0.3808544764781372 1.0000   
         C         C         1.0       0.17305491512583585           0.893488684394106  0.3701779781631544 1.0000   
         C         C         1.0       0.18751399766916607           0.861479973787887  0.3704536083660833 1.0000   
         C         C         1.0       0.21780984762651473           0.8578195850358246 0.38387025676437464          1.0000   
         C         C         1.0       0.23724658715916125           0.9518150488615091 0.4093555490768444 1.0000   
         C         C         1.0       0.2256335917999258  0.9857981873795159  0.39384674661307095          1.0000   
         C         C         1.0       0.2390015913960459  0.9977273143663583  0.3683947308575448 1.0000   
         C         C         1.0       0.2209181997105237  0.019329568644988138         0.35139532158592474          1.0000   
         C         C         1.0       0.19125669401785642           0.03158288047843727          0.3600475236688624 1.0000   
         C         C         1.0       0.17857906195270537           0.025824242370032113         0.3860300960403938 1.0000   
         C         C         1.0       0.19538730685899192           0.001771029176619754         0.40320946388821516          1.0000   
         C         C         1.0       0.2042830979124673  0.9260909269527954  0.4540436150376111 1.0000   
         C         C         1.0       0.19318206830688442           0.9282247298704716 0.48226936244142327          1.0000   
         C         C         1.0       0.20344270251917654           0.9557502145073838 0.49976402599186515          1.0000   
         C         C         1.0       0.22155293382470428           0.9817975263274354 0.48772595201635605          1.0000   
         C         C         1.0       0.23085371096992252           0.9813616082646442 0.45991227094943343          1.0000   
         C         C         1.0       0.22570155779993029           0.9521600318462333 0.44344894317597866          1.0000   
         C         C         1.0       0.1912920912172062  0.9571416529326331  0.5320593665778548 1.0000   
         C         C         1.0       0.10306839518007865           0.018091831833398686         0.5177059429420623 1.0000   
         C         C         1.0       0.0991286115954911  0.9830753631767966  0.5164712142935536 1.0000   
         C         C         1.0       0.12714848380216565           0.9642539692285212 0.5223169825160354 1.0000   
         C         C         1.0       0.15758884169679302           0.9789594917008194 0.5297958311620512 1.0000   
         C         C         1.0       0.1604598029075392  0.014782810666285728         0.5305627629955767 1.0000   
         C         C         1.0       0.13317083886154582           0.033586980584458415         0.5247356858684441 1.0000   
         C         C         1.0       0.22064855424122914           0.9723943610428004 0.552358759185202  1.0000   
         C         C         1.0       0.25384056455905546           0.9613673490896315 0.5491384435200555 1.0000   
         C         C         1.0       0.2782867774683933  0.9718692634671783  0.5690978800042684 1.0000   
         C         C         1.0       0.2693510584750873  0.993198233352522   0.5910216572211343 1.0000   
         C         C         1.0       0.23545432251803403           0.9985822326191421 0.5974157386346796 1.0000   
         C         C         1.0       0.2124798590114763  0.9908508366459657  0.577130897962919  1.0000   
         C         C         1.0       0.16153054324460225           0.9184878942577952 0.574005591760164  1.0000   
         C         C         1.0       0.1621535899879111  0.8884135689567894  0.5886415230385841 1.0000   
         C         C         1.0       0.18299653214301292           0.860298560754594  0.5813378833936041 1.0000   
         C         C         1.0       0.20161572978918688           0.8619385911712635 0.5560866302372194 1.0000   
         C         C         1.0       0.2051655468574346  0.8925346763581055  0.5428085458003519 1.0000   
         C         C         1.0       0.18502187607521306           0.9216788661108762 0.5501020791654376 1.0000   
         H         H         1.0       0.25317238859825264           0.8817431716775627 0.4115207764387367 1.0000   
         H         H         1.0       0.17446418591057108           0.9453329605712922 0.3813513103209971 1.0000   
         H         H         1.0       0.15008539803180682           0.8968069810210851 0.35891217521980223          1.0000   
         H         H         1.0       0.2294943636870737  0.8329193997077078  0.3882949201025704 1.0000   
         H         H         1.0       0.26377279027248424           0.9913251408259945 0.360995841678933  1.0000   
         H         H         1.0       0.23486857372575964           0.02748341861366077          0.33252829020046665          1.0000   
         H         H         1.0       0.15444791423674517           0.03545065867307873          0.392490616534933  1.0000   
         H         H         1.0       0.18218907977616752           0.9921423011238796 0.4212753520419069 1.0000   
         H         H         1.0       0.1950154730672118  0.9054449471318252  0.44044645279285743          1.0000   
         H         H         1.0       0.17598781839051403           0.9089754331918205 0.48882659136828305          1.0000   
         H         H         1.0       0.2297490639625719  0.002256433593599283         0.500580255107977  1.0000   
         H         H         1.0       0.24777004391194965           0.0018056344648302858        0.45272081698359745          1.0000   
         H         H         1.0       0.07391401375008316           0.9718165453679396 0.5104329986679144 1.0000   
         H         H         1.0       0.12684097029307026           0.9365304734524774 0.5204680683129236 1.0000   
         H         H         1.0       0.18381770961877905           0.026853687711485996         0.5382520203008763 1.0000   
         H         H         1.0       0.13423921266817732           0.06030351847227289          0.524739477175626  1.0000   
         H         H         1.0       0.26257215982624366           0.9466950205680724 0.5302831872967256 1.0000   
         H         H         1.0       0.30429074309638976           0.9640293088835852 0.5654304653809388 1.0000   
         H         H         1.0       0.22802998917934175           0.014208085990445873         0.6166240479191044 1.0000   
         H         H         1.0       0.18725004611414292           0.0007025426991935646        0.581945155191535  1.0000   
         H         H         1.0       0.1484631422164749  0.9417864515270156  0.5818025846985285 1.0000   
         H         H         1.0       0.14418435358634    0.8872035462091058  0.6077333426439276 1.0000   
         H         H         1.0       0.21677871093709414           0.8409060967603206 0.5482921780938691 1.0000   
         H         H         1.0       0.2223556715361224  0.8922516837270028  0.5241586078342324 1.0000   
         C         C         1.0       0.8223774664617421  0.14029174374744602           0.7669585451277563 1.0000   
         C         C         1.0       0.8412985677012116  0.14604978368004407           0.7422521323141364 1.0000   
         C         C         1.0       0.859818369593781   0.11966070113891769           0.7306391773921485 1.0000   
         C         C         1.0       0.8687592894714227  0.09261463920208701           0.7484513895691555 1.0000   
         C         C         1.0       0.8492155312783076  0.08763757169093944           0.7724609565481951 1.0000   
         C         C         1.0       0.8260874233630667  0.11063577970326754           0.781483978941839  1.0000   
         H         H         1.0       0.835945209969891   0.16764383019439966           0.7318286076712578 1.0000   
         H         H         1.0       0.8707414724085887  0.1235647943342697  0.7076917778144449 1.0000   
         H         H         1.0       0.8530316523966407  0.06587586486021468           0.7851079217987964 1.0000   
         H         H         1.0       0.8147726125343949  0.10740793024260364           0.8027501880642675 1.0000   
         C         C         1.0       0.9210842165891017  0.06087693354089274           0.7935220296516478 1.0000   
         C         C         1.0       0.923742152596573   0.052053503385750544         0.7648457436406184 1.0000   
         C         C         1.0       0.947622849285276   0.02610534779577245           0.7573335488309164 1.0000   
         C         C         1.0       0.9694317214328071  0.014627945936271924         0.7773593688250688 1.0000   
         C         C         1.0       0.9636129046720168  0.021892882976989325         0.806576935793217  1.0000   
         C         C         1.0       0.9387882830197447  0.04540716937883427           0.8142203515379431 1.0000   
         C         C         1.0       0.8989872286356153  0.0670565559847125  0.7399448291889509 1.0000   
         C         C         1.0       0.9295421228442389  0.08570627439097489           0.7237442297700872 1.0000   
         C         C         1.0       0.9481297449744522  0.07352460970322605           0.7010870696085076 1.0000   
         C         C         1.0       0.9728951984479247  0.09178508268622186           0.6873801469435342 1.0000   
         C         C         1.0       0.9803706441541838  0.12434943890370376           0.6967987485380014 1.0000   
         C         C         1.0       0.9660222585459456  0.1361821916633472  0.7216143578707829 1.0000   
         C         C         1.0       0.9399196566264253  0.11806685607359882           0.7333137276226391 1.0000   
         C         C         1.0       0.8685894037886305  0.009580816130503544         0.7445117172465762 1.0000   
         C         C         1.0       0.8550391027897991  0.9802877743429456  0.73353670107035   1.0000   
         C         C         1.0       0.8545084649361484  0.9746012411823244  0.7042644360466729 1.0000   
         C         C         1.0       0.8646857603117751  0.0017352599999496121        0.6862157613285137 1.0000   
         C         C         1.0       0.8784511933327844  0.030425820422711025         0.6973734915752406 1.0000   
         C         C         1.0       0.881479455863823   0.03450187888813594           0.7267494810374993 1.0000   
         C         C         1.0       0.8480184853558321  0.9359718606188683  0.6944759577250421 1.0000   
         C         C         1.0       0.9474543669725234  0.9032234198811123  0.7255632241516727 1.0000   
         C         C         1.0       0.920798316627172   0.9017840546164597  0.7437488156955065 1.0000   
         C         C         1.0       0.8890584275370321  0.9087061434524955  0.733736628033331  1.0000   
         C         C         1.0       0.8839695565211734  0.9194636450218288  0.7056958799306413 1.0000   
         C         C         1.0       0.9122687179901933  0.920978835901841   0.6876966219320537 1.0000   
         C         C         1.0       0.9442719198503979  0.9139408028898528  0.6975884263421618 1.0000   
         C         C         1.0       0.8414209986396601  0.9285472565837083  0.6609827837222932 1.0000   
         C         C         1.0       0.8228645409253021  0.9503706422184995  0.644849667382565  1.0000   
         C         C         1.0       0.8151546716993701  0.942343442893423   0.616668876745088  1.0000   
         C         C         1.0       0.8302183641317566  0.9149515364969676  0.6032608582972134 1.0000   
         C         C         1.0       0.845400668105393   0.8925060686245495  0.6211555810172138 1.0000   
         C         C         1.0       0.8512034062606016  0.8986578426828181  0.6492445739485411 1.0000   
         C         C         1.0       0.8121467970475386  0.8825506205360987  0.709109371406481  1.0000   
         C         C         1.0       0.7828740691675591  0.8672440049156854  0.7193143352271778 1.0000   
         C         C         1.0       0.7542389629195655  0.8863431253036026  0.7247420036964538 1.0000   
         C         C         1.0       0.7582456070745537  0.9226647485685849  0.7249411564264797 1.0000   
         C         C         1.0       0.7871138899420861  0.9376966871302719  0.7185525623685706 1.0000   
         C         C         1.0       0.8152658014704575  0.9181931980974164  0.708736408329408  1.0000   
         H         H         1.0       0.9041644147776142  0.08180743930208667           0.7999878491921707 1.0000   
         H         H         1.0       0.950715236000638   0.017650782054651426         0.7345904914360197 1.0000   
         H         H         1.0       0.990659285748088   0.9966594185204887  0.7715601664081566 1.0000   
         H         H         1.0       0.9336461250694732  0.053633676796013496         0.8364419897256473 1.0000   
         H         H         1.0       0.9440595400772246  0.048925048672563864         0.6919168484960528 1.0000   
         H         H         1.0       0.9831473333124015  0.08372943564737216           0.6669596190615428 1.0000   
         H         H         1.0       0.9724980510940203  0.16266608396295543           0.7263952196952819 1.0000   
         H         H         1.0       0.9264810618753894  0.12929488496300184           0.7526076691871679 1.0000   
         H         H         1.0       0.8683920743327123  0.01323071865269343           0.7673846682194321 1.0000   
         H         H         1.0       0.8484046414692122  0.9593701828422159  0.7475281207280082 1.0000   
         H         H         1.0       0.8623011486929948  0.00034629515463246996       0.6627217475831118 1.0000   
         H         H         1.0       0.8867905543487821  0.05115613184811041           0.6821697173587783 1.0000   
         H         H         1.0       0.9262732013790511  0.8906363829795423  0.7647726577996253 1.0000   
         H         H         1.0       0.8667691803176826  0.909991055644512   0.7481741502873608 1.0000   
         H         H         1.0       0.91093211349631    0.9334022760247539  0.6672886998565473 1.0000   
         H         H         1.0       0.9682008745128876  0.9194611090958507  0.6866655965265608 1.0000   
         H         H         1.0       0.8112828762185696  0.9743670578703683  0.6522897906515109 1.0000   
         H         H         1.0       0.8004603489505029  0.9604702440086554  0.6049910651246468 1.0000   
         H         H         1.0       0.8555846894162554  0.8688458286139066  0.6122439259045288 1.0000   
         H         H         1.0       0.8666940135233961  0.8811973323409215  0.6613490091240368 1.0000   
         H         H         1.0       0.8326605721098073  0.863332177951851   0.7046074373280252 1.0000   
         H         H         1.0       0.7802412819262479  0.8387754191714745  0.7195554938247946 1.0000   
         H         H         1.0       0.7382732167255659  0.938198366436357   0.733019474141044  1.0000   
         H         H         1.0       0.7884964832759157  0.9654695511350037  0.721830952915068  1.0000   
         C         C         1.0       0.8381804885480328  0.9657246686293315  0.4274499929601525 1.0000   
         C         C         1.0       0.8722787603710219  0.9645825786032629  0.4183459822592616 1.0000   
         C         C         1.0       0.8875115592422292  0.9952524524859575  0.41323454819329863          1.0000   
         C         C         1.0       0.8710292284177356  0.027089102082330285         0.4166724548982254 1.0000   
         C         C         1.0       0.8383936683862393  0.02712849097304071           0.42719136778632005          1.0000   
         C         C         1.0       0.8216676966174985  0.9974260457885863  0.4332399963753951 1.0000   
         H         H         1.0       0.8856028353519121  0.941562721084066   0.4181365303775534 1.0000   
         H         H         1.0       0.9134437119577328  0.9944315380148089  0.4078670029999901 1.0000   
         H         H         1.0       0.826201817595522   0.05280642806397329           0.42870213996200907          1.0000   
         H         H         1.0       0.7960027100565656  0.9985306666693086  0.4411038530581988 1.0000   
         C         C         1.0       0.8420108240006631  0.0801662298748318  0.3744933020795154 1.0000   
         C         C         1.0       0.864581301351624   0.0917353428170109  0.39462903588759357          1.0000   
         C         C         1.0       0.867401547237958   0.12715357498114122           0.39857136721806835          1.0000   
         C         C         1.0       0.8476897223484168  0.14991595525172108           0.384125124622982  1.0000   
         C         C         1.0       0.8209119123059847  0.13734918221602865           0.3673833356669204 1.0000   
         C         C         1.0       0.818818157222041   0.10204829559730011           0.36237244882509423          1.0000   
         C         C         1.0       0.88869989396149    0.06417926472279789           0.41021211792114565          1.0000   
         C         C         1.0       0.919942041688645   0.06223963716333114           0.38921562868759574          1.0000   
         C         C         1.0       0.9479215507188982  0.08188166253795726           0.39274903156009605          1.0000   
         C         C         1.0       0.9767232156206505  0.07835298781052802           0.3764067818370081 1.0000   
         C         C         1.0       0.976789153450221   0.05481024416195002           0.3541302284667292 1.0000   
         C         C         1.0       0.9484952266239612  0.03664037109705931           0.34812837455141205          1.0000   
         C         C         1.0       0.9193633919522347  0.04209430799061442           0.36427108730514074          1.0000   
         C         C         1.0       0.876801563855031   0.09264294511002791           0.45923393669426943          1.0000   
         C         C         1.0       0.8813073926903986  0.09254899981571052           0.4888321336111108 1.0000   
         C         C         1.0       0.9059756063638744  0.07381695155672019           0.5012000335328194 1.0000   
         C         C         1.0       0.9263516329665844  0.054892920741823614         0.48261631691196016          1.0000   
         C         C         1.0       0.9241534401299836  0.05633035549105525           0.4537022750785902 1.0000   
         C         C         1.0       0.897500134245705   0.07337937316415477           0.4413318768456753 1.0000   
         C         C         1.0       0.9093651744466656  0.06605581509223524           0.5369267413252988 1.0000   
         C         C         1.0       0.8546036267128156  0.13167940256362856           0.5995697962411571 1.0000   
         C         C         1.0       0.8889099721336362  0.12761886699594172           0.6010910396668195 1.0000   
         C         C         1.0       0.9069038449329191  0.10843823580263479           0.5808671808777787 1.0000   
         C         C         1.0       0.8910756780205866  0.09370990281228742           0.5579730176679907 1.0000   
         C         C         1.0       0.8554782245065609  0.09523179151577343           0.5575715835094169 1.0000   
         C         C         1.0       0.8374527889173651  0.11564427477778386           0.5771990234928993 1.0000   
         C         C         1.0       0.9485617953842416  0.06570734995380878           0.5413744651910405 1.0000   
         C         C         1.0       0.9677847594342652  0.03575803686633661           0.5467765773459922 1.0000   
         C         C         1.0       0.0023970066394423117         0.034871873876959114         0.5455637358066139 1.0000   
         C         C         1.0       0.01995484522697999           0.0650588307010187 0.5404300942361894 1.0000   
         C         C         1.0       0.003792573807827937          0.09461518242605838          0.5347701449719338 1.0000   
         C         C         1.0       0.9683787436198998  0.09429733751878566           0.535633575177465  1.0000   
         C         C         1.0       0.8934832703473314  0.017021773996188427         0.5731378276754578 1.0000   
         C         C         1.0       0.8845637086871933  0.9835979679412062  0.5782290656459298 1.0000   
         C         C         1.0       0.8734405032014245  0.9628013228062571  0.5559080519416665 1.0000   
         C         C         1.0       0.8667314816827301  0.9768631937499883  0.5301683233335501 1.0000   
         C         C         1.0       0.8757144194795373  0.010053746234010008         0.523911931152839  1.0000   
         C         C         1.0       0.8920885167250991  0.03029235070966929           0.5445121963840434 1.0000   
         H         H         1.0       0.8395647913194112  0.05251812804600542           0.371483058457683  1.0000   
         H         H         1.0       0.8891094301391452  0.1372173417857976  0.4110128385474412 1.0000   
         H         H         1.0       0.8504788331909642  0.17828730094629927           0.38539221154799097          1.0000   
         H         H         1.0       0.8004131248327309  0.09106173141560614           0.34799662577251195          1.0000   
         H         H         1.0       0.9536495889337763  0.09938661318291486           0.41048743254232234          1.0000   
         H         H         1.0       0.9975576182377405  0.09377288947665807           0.37948097671228576          1.0000   
         H         H         1.0       0.9503924718502039  0.018335168131730084         0.33087038185000067          1.0000   
         H         H         1.0       0.8962667858970567  0.030383826062762465         0.3585478508813177 1.0000   
         H         H         1.0       0.8540896213024571  0.10640891344508607           0.4529170931460674 1.0000   
         H         H         1.0       0.8625778259695496  0.1077432983085973  0.5010819642220915 1.0000   
         H         H         1.0       0.9431328913479572  0.035255210625642075         0.49056539522587767          1.0000   
         H         H         1.0       0.9394678823050369  0.039129104479485255         0.44212236167188257          1.0000   
         H         H         1.0       0.9022913271438862  0.13794322398726713           0.6190547447229278 1.0000   
         H         H         1.0       0.9333517688431885  0.10537884350395688           0.5856959024724558 1.0000   
         H         H         1.0       0.8435805865152017  0.08043424078134676           0.5411698595044657 1.0000   
         H         H         1.0       0.8093189267892196  0.11726151336004045           0.5748788715648082 1.0000   
         H         H         1.0       0.9541622928208637  0.012774419105020751         0.5532392914215699 1.0000   
         H         H         1.0       0.016355874630481493          0.011041611287774478         0.5461151585836974 1.0000   
         H         H         1.0       0.017068055899569723          0.11701562192380255          0.5301011051968975 1.0000   
         H         H         1.0       0.9549034596838467  0.11783116709865893           0.5309691905796002 1.0000   
         H         H         1.0       0.9019406331294388  0.031004875695933132         0.5921402405900019 1.0000   
         H         H         1.0       0.8916742526336383  0.9737314449887993  0.5995234462298421 1.0000   
         H         H         1.0       0.8560833607161249  0.9609887288449295  0.5125756890697836 1.0000   
         H         H         1.0       0.8694059952490438  0.019243797993227618         0.5025216572546745 1.0000   
         C         C         1.0       0.3237057679848576  0.05137151077573176           0.7609556147470332 1.0000   
         C         C         1.0       0.29879283136262746           0.046541987312205484         0.7407524158728565 1.0000   
         C         C         1.0       0.28074478291379207           0.07542284677068353          0.7330723036444536 1.0000   
         C         C         1.0       0.2795063388114263  0.10529409506987153           0.7492869348311627 1.0000   
         C         C         1.0       0.3044392771578514  0.10917654359678922           0.7698577289275483 1.0000   
         C         C         1.0       0.3263444774080389  0.08254411038545457           0.7762998591056218 1.0000   
         H         H         1.0       0.2963821638475786  0.02350647385834259           0.729347041074328  1.0000   
         H         H         1.0       0.26604010323317895           0.07130582081431987          0.7149578093057372 1.0000   
         H         H         1.0       0.30233229408138507           0.13069370121213741          0.7848786935514049 1.0000   
         H         H         1.0       0.34400357026098977           0.08350266194022614          0.7931780708163805 1.0000   
         C         C         1.0       0.2357263855663189  0.13882183867462528           0.7980889401304659 1.0000   
         C         C         1.0       0.2348419537289374  0.15313679009599637           0.77096662756827   1.0000   
         C         C         1.0       0.21615025049846717           0.18426647599536244          0.7676205989570005 1.0000   
         C         C         1.0       0.20112888266116838           0.19959111596737675          0.7908704529511267 1.0000   
         C         C         1.0       0.20649920838341526           0.18636905590326233          0.8178330997501373 1.0000   
         C         C         1.0       0.22355783067449328           0.15558350529131504          0.8225507117331883 1.0000   
         C         C         1.0       0.2524666253056007  0.13631122909963503           0.7429912474300809 1.0000   
         C         C         1.0       0.2201699849059605  0.12064341563018331           0.7257645005854899 1.0000   
         C         C         1.0       0.207080569249908   0.13567251678432207           0.7018271423156168 1.0000   
         C         C         1.0       0.18331687369342012           0.11870955476002473          0.6873422115003206 1.0000   
         C         C         1.0       0.17196437020553199           0.08571999056929902          0.695685151222074  1.0000   
         C         C         1.0       0.17928347827043717           0.0758157774526158 0.7233248130247985 1.0000   
         C         C         1.0       0.20376034119225658           0.09349110201502682          0.7375238459053407 1.0000   
         C         C         1.0       0.2899690824417212  0.1912766402971333  0.7420733547691892 1.0000   
         C         C         1.0       0.30296818957432226           0.21918870287791642          0.7299355498860896 1.0000   
         C         C         1.0       0.29956522901198807           0.2261741053917284 0.6996248865218313 1.0000   
         C         C         1.0       0.28895871021157404           0.1985420291056263 0.6831538254109442 1.0000   
         C         C         1.0       0.2776510143621167  0.16811400246620198           0.6957359127173581 1.0000   
         C         C         1.0       0.2744409659410577  0.16647503365815652           0.7260162897884292 1.0000   
         C         C         1.0       0.30073277714681385           0.26405398616538384          0.6873149179315257 1.0000   
         C         C         1.0       0.19963821492684627           0.29004369738042884          0.7144599904028529 1.0000   
         C         C         1.0       0.22557921727396943           0.29756067698087973          0.7321783944176067 1.0000   
         C         C         1.0       0.2576603576460958  0.29011344460538824           0.7242398565613161 1.0000   
         C         C         1.0       0.2649654224731371  0.2760345277034379  0.6972519230750815 1.0000   
         C         C         1.0       0.23743919914672051           0.27059480321428564          0.6794002787030265 1.0000   
         C         C         1.0       0.20545475713774033           0.27596928435875406          0.6882723396318554 1.0000   
         C         C         1.0       0.30912975235231216           0.2690201867206252 0.6543749169636186 1.0000   
         C         C         1.0       0.33195081625307515           0.24652267692662275          0.6412287227161253 1.0000   
         C         C         1.0       0.3400341651072982  0.2500962340661523  0.6123960303123264 1.0000   
         C         C         1.0       0.3305999507357467  0.27925332355657045           0.5977188040882425 1.0000   
         C         C         1.0       0.31203122103744785           0.30396837529541537          0.6115253239449073 1.0000   
         C         C         1.0       0.301494671643168   0.29968270725280444           0.6392542509258984 1.0000   
         C         C         1.0       0.33119918075112603           0.3206526642214713 0.701246063006471  1.0000   
         C         C         1.0       0.357945006172836   0.3399276470595223  0.7121123026402656 1.0000   
         C         C         1.0       0.38775593386538515           0.3231493149812248 0.7169960663222971 1.0000   
         C         C         1.0       0.3912695465531746  0.2874453538157615  0.7126426047016112 1.0000   
         C         C         1.0       0.36330086709751336           0.26889821025917404          0.7056171001942892 1.0000   
         C         C         1.0       0.3327593884335301  0.28521891943078204           0.6999872146197453 1.0000   
         H         H         1.0       0.24613749551866596           0.11272347656434203          0.8002856173637928 1.0000   
         H         H         1.0       0.21797443011092232           0.19907330841114182          0.7496096073189981 1.0000   
         H         H         1.0       0.18908993628367654           0.22447797190657023          0.7895667233797803 1.0000   
         H         H         1.0       0.22677690442720905           0.14428480017037695          0.8431230336837247 1.0000   
         H         H         1.0       0.21379415030108992           0.16085670652710574          0.6941091529525323 1.0000   
         H         H         1.0       0.1729653558172819  0.1283283064625204  0.6670975888440934 1.0000   
         H         H         1.0       0.17155665720359878           0.0508363797561282 0.7305650299738892 1.0000   
         H         H         1.0       0.2140139756440475  0.07999189228969687           0.7559059480569251 1.0000   
         H         H         1.0       0.2903442353382946  0.18931825071384695           0.7656829210720366 1.0000   
         H         H         1.0       0.30701248684204935           0.23929660856125123          0.7440849458610694 1.0000   
         H         H         1.0       0.2860774852808747  0.20274168188680516           0.661616705093465  1.0000   
         H         H         1.0       0.2706055699440088  0.14987469258114838           0.6802818372623494 1.0000   
         H         H         1.0       0.2182718315709406  0.3066412987283123  0.7541391431989913 1.0000   
         H         H         1.0       0.27782056331268684           0.29332349190672224          0.7400399231100636 1.0000   
         H         H         1.0       0.24298277563395926           0.2607380658312961 0.6577807668532777 1.0000   
         H         H         1.0       0.1843355049340616  0.267534790673631   0.6753084074259551 1.0000   
         H         H         1.0       0.3438132304211136  0.22583269910996892           0.6534088337732485 1.0000   
         H         H         1.0       0.35708384100918256           0.2299587780116342 0.6033292192589017 1.0000   
         H         H         1.0       0.3073279339556299  0.3293980791320363  0.6015586181672005 1.0000   
         H         H         1.0       0.2867232893629627  0.3209046210677147  0.6488189981973381 1.0000   
         H         H         1.0       0.3084297941973819  0.3329261637940419  0.6964849552986915 1.0000   
         H         H         1.0       0.3566132531505709  0.3675061654227255  0.7176386782784988 1.0000   
         H         H         1.0       0.41425335516242007           0.273404686757674  0.7190594773905811 1.0000   
         H         H         1.0       0.366583946935824   0.2430085418293193  0.7057250224767371 1.0000   
         C         C         1.0       0.3184690944675068  0.21030000682237432           0.4199395749447381 1.0000   
         C         C         1.0       0.2877850533417779  0.21489786758030643           0.4083371052376746 1.0000   
         C         C         1.0       0.2659537529970964  0.1887886157498226  0.4042168609194909 1.0000   
         C         C         1.0       0.275658427560934   0.15410886625638334           0.4098136407706683 1.0000   
         C         C         1.0       0.3071911199228132  0.15091363250854004           0.42224249400965946          1.0000   
         C         C         1.0       0.32906488896023417           0.17931801987022022          0.42687072545977317          1.0000   
         H         H         1.0       0.28161369687886983           0.2417277164485513 0.4017497351109838 1.0000   
         H         H         1.0       0.2400636351891899  0.1971179984440062  0.3991772417962369 1.0000   
         H         H         1.0       0.31627990469649614           0.1282051672612451 0.4322294396527759 1.0000   
         H         H         1.0       0.3536275251504832  0.17349592292327543           0.4343400278208458 1.0000   
         C         C         1.0       0.2702960026194271  0.09022305011596594           0.3676077581409613 1.0000   
         C         C         1.0       0.2667521837642684  0.0916410322173998  0.39725527781221365          1.0000   
         C         C         1.0       0.2856837173647857  0.06849046367352668           0.41278966550807705          1.0000   
         C         C         1.0       0.3088065169606643  0.04652790887181446           0.39997213247687935          1.0000   
         C         C         1.0       0.31281905989987735           0.04653906451641121          0.3712902009929273 1.0000   
         C         C         1.0       0.2929036721560607  0.06736005416005243           0.354288176511675  1.0000   
         C         C         1.0       0.24705112446258018           0.12425712685909457          0.41334612134711957          1.0000   
         C         C         1.0       0.2092775487636504  0.12954936756549146           0.39844876122709666          1.0000   
         C         C         1.0       0.18034754865700994           0.11730661324917073          0.4117899998692338 1.0000   
         C         C         1.0       0.14829295640940204           0.12429981321022635          0.4021479550656577 1.0000   
         C         C         1.0       0.1458244938091184  0.1384096195996482  0.3751779857852222 1.0000   
         C         C         1.0       0.17225525188228674           0.15225695210834103          0.36184867123304626          1.0000   
         C         C         1.0       0.20373152034652017           0.1477272873163301 0.371986642518822  1.0000   
         C         C         1.0       0.23648334306634566           0.09932112455806184          0.46537512186000984          1.0000   
         C         C         1.0       0.2306357143672804  0.10428012394046152           0.4951940868745681 1.0000   
         C         C         1.0       0.2291977992486957  0.1368777677546198  0.5072404024099881 1.0000   
         C         C         1.0       0.22708429316022608           0.16386429792892473          0.48784189001370626          1.0000   
         C         C         1.0       0.22963793908061694           0.15928137958833632          0.45908658107083816          1.0000   
         C         C         1.0       0.23812043287204784           0.12745032091124658          0.44735897401880725          1.0000   
         C         C         1.0       0.23189809794466762           0.14620646328448766          0.5403959616422683 1.0000   
         C         C         1.0       0.2785223516120481  0.0724026020671007  0.6007533451084267 1.0000   
         C         C         1.0       0.2919384483044751  0.0771995653698432  0.5731774859116296 1.0000   
         C         C         1.0       0.2774247103230879  0.0990800027653888  0.5529395284420893 1.0000   
         C         C         1.0       0.24844580222601473           0.1173879021804365 0.5609689356779572 1.0000   
         C         C         1.0       0.23569414178889328           0.11301458235959738          0.5888383720802013 1.0000   
         C         C         1.0       0.2499484596939581  0.08984006121010187           0.60739159186198   1.0000   
         C         C         1.0       0.19272580008726198           0.15574792806297968          0.547306882420833  1.0000   
         C         C         1.0       0.18052040203760455           0.18957732601271485          0.5454075513934983 1.0000   
         C         C         1.0       0.14707148765926328           0.19808335775298147          0.5509090269621666 1.0000   
         C         C         1.0       0.12430228652908279           0.17162253424948523          0.559963799756101  1.0000   
         C         C         1.0       0.13588863153365843           0.13824133170987535          0.5600498725898319 1.0000   
         C         C         1.0       0.16872236514107103           0.1306939261982129 0.554216369914986  1.0000   
         C         C         1.0       0.25130315469447734           0.19740871375517194          0.5681062545743302 1.0000   
         C         C         1.0       0.26728562532811134           0.22928263152688436          0.5695461712685842 1.0000   
         C         C         1.0       0.29359799344580845           0.23734175077528907          0.5504426400901494 1.0000   
         C         C         1.0       0.30377635671943887           0.21289492406488192          0.5311767499015894 1.0000   
         C         C         1.0       0.2862467383670717  0.18232061167858085           0.5289974796809078 1.0000   
         C         C         1.0       0.25963681585281134           0.17443548469132514          0.5472746767223252 1.0000   
         H         H         1.0       0.25566923409206205           0.10658005808545899          0.35495630717312493          1.0000   
         H         H         1.0       0.2866831139649284  0.073505256563203   0.43470323378490244          1.0000   
         H         H         1.0       0.3253261658254573  0.03275350717574543           0.41511599277753325          1.0000   
         H         H         1.0       0.2950100896220829  0.06812492469299102           0.33131497378158736          1.0000   
         H         H         1.0       0.17994137683778505           0.10098083904580026          0.43034747912434135          1.0000   
         H         H         1.0       0.12705088529083808           0.11290668194672294          0.41337286094291215          1.0000   
         H         H         1.0       0.16599952970547804           0.16744430622136602          0.34225915258904155          1.0000   
         H         H         1.0       0.22169724010785183           0.16054349728568693          0.35894934426809244          1.0000   
         H         H         1.0       0.24234370781837178           0.07380495434090233          0.45836273385953674          1.0000   
         H         H         1.0       0.23242614927567645           0.08177389447172351          0.5087382293303225 1.0000   
         H         H         1.0       0.22077597784708602           0.19089489969508328          0.4939754332689215 1.0000   
         H         H         1.0       0.22716552484614055           0.18222877421377873          0.44641323253244236          1.0000   
         H         H         1.0       0.31116621703180064           0.06154214340677226          0.5633515985491837 1.0000   
         H         H         1.0       0.28778472875932226           0.09986031734867558          0.532715399491579  1.0000   
         H         H         1.0       0.21424162233428787           0.1289276171540564 0.5959343806393748 1.0000   
         H         H         1.0       0.24073151019543426           0.09374771364035665          0.6301811769261555 1.0000   
         H         H         1.0       0.1942645788888919  0.21155502209918858           0.5360240328493296 1.0000   
         H         H         1.0       0.13581857086307872           0.22426519437301645          0.5476974267015119 1.0000   
         H         H         1.0       0.11898682503495288           0.11570911717138797          0.5618427410554815 1.0000   
         H         H         1.0       0.17690545307986802           0.10427238979388823          0.5545269765863614 1.0000   
         H         H         1.0       0.23002279848400364           0.19207213033009857          0.5816905771321952 1.0000   
         H         H         1.0       0.2600598456457122  0.2489845691839696  0.5844272736162608 1.0000   
         H         H         1.0       0.3221068834129405  0.21746210303572447           0.5139570638968024 1.0000   
         H         H         1.0       0.2948510898391751  0.16540043113213512           0.510610905717628  1.0000   
         C         C         1.0       0.8951160894538162  0.34220278306154717           0.24829548502370646          1.0000   
         C         C         1.0       0.9257023386995795  0.32652635085075127           0.24220170779758482          1.0000   
         C         C         1.0       0.9286654109108775  0.2909465918962876  0.24159007009737024          1.0000   
         C         C         1.0       0.9011519630902275  0.26968044976946853           0.24812928361600858          1.0000   
         C         C         1.0       0.8699156649047991  0.28661985782937427           0.252247874655034  1.0000   
         C         C         1.0       0.8665737336457704  0.3217277997610696  0.2531960013924312 1.0000   
         H         H         1.0       0.9482786655176779  0.3436223852191729  0.24118201514577037          1.0000   
         H         H         1.0       0.9529906609579198  0.2802813496358937  0.24103510905962244          1.0000   
         H         H         1.0       0.8466215052347357  0.27530137819908945           0.25340105563639337          1.0000   
         H         H         1.0       0.8428968699342613  0.3343725134851955  0.2591620765404904 1.0000   
         C         C         1.0       0.8622400176129255  0.2252264061384112  0.29570412314713496          1.0000   
         C         C         1.0       0.8727490468862518  0.210404072728934   0.26931108724265823          1.0000   
         C         C         1.0       0.8602226283172036  0.17776025567875747           0.26419485556203054          1.0000   
         C         C         1.0       0.8356510232015811  0.16172756466266275           0.2796024501352152 1.0000   
         C         C         1.0       0.8226672386590742  0.17870240884274594           0.30378229803758544          1.0000   
         C         C         1.0       0.83693484048854    0.2091181827535965  0.3116135383330598 1.0000   
         C         C         1.0       0.9012901408428484  0.22864642612455777           0.24995643454330596          1.0000   
         C         C         1.0       0.9328500436684275  0.2122420514404899  0.2648273135471357 1.0000   
         C         C         1.0       0.9414826342589899  0.1780383694419503  0.25894538369154296          1.0000   
         C         C         1.0       0.9636572497931547  0.1613127037395551  0.27705488222256874          1.0000   
         C         C         1.0       0.9745387994653495  0.17696375764852812           0.3015722376755474 1.0000   
         C         C         1.0       0.9672632028218537  0.21101220085134156           0.3058126221580447 1.0000   
         C         C         1.0       0.947823775778243   0.2294356676582225  0.28735614629938433          1.0000   
         C         C         1.0       0.8671856108383231  0.21922937321890382           0.2044350132280594 1.0000   
         C         C         1.0       0.8653287329453934  0.2177230661331724  0.1753526256992548 1.0000   
         C         C         1.0       0.8943805243122595  0.21970323539551945           0.15723672828815874          1.0000   
         C         C         1.0       0.9255990879169799  0.2188957656823865  0.170055891433136  1.0000   
         C         C         1.0       0.9281583419128353  0.21983561349986352           0.19921592495405238          1.0000   
         C         C         1.0       0.8993599342811345  0.221204713359734   0.21694234527700787          1.0000   
         C         C         1.0       0.8939074421173278  0.22297930606526664           0.12304597622968974          1.0000   
         C         C         1.0       0.9411124276343815  0.12105405609798318           0.104139826716858  1.0000   
         C         C         1.0       0.909364411473044   0.1236316504708233  0.11616979789379428          1.0000   
         C         C         1.0       0.8939637551362665  0.15547993223657852           0.11892406202716785          1.0000   
         C         C         1.0       0.9108028673361389  0.1866144260228389  0.11315494123227106          1.0000   
         C         C         1.0       0.9430903017607348  0.18274004147910994           0.10213323092985085          1.0000   
         C         C         1.0       0.9571406470140909  0.15131821054894537           0.09710732267373187          1.0000   
         C         C         1.0       0.9125365496755917  0.25703065158363597           0.11206992568791978          1.0000   
         C         C         1.0       0.9229293426158593  0.2845981040749458  0.129899340079146  1.0000   
         C         C         1.0       0.945537984705575   0.30759997471348566           0.11909591886946262          1.0000   
         C         C         1.0       0.9583795340864376  0.3063802619682327  0.09150528873868474          1.0000   
         C         C         1.0       0.9433140605854498  0.2848462197677418  0.07292621208912532          1.0000   
         C         C         1.0       0.920911414769121   0.25936163717502675           0.08290919303211462          1.0000   
         C         C         1.0       0.8496695171262652  0.21663005502659213           0.08379377084603515          1.0000   
         C         C         1.0       0.8221128546364445  0.22532284911094513           0.06972282345844699          1.0000   
         C         C         1.0       0.7996851487133464  0.24907982782043217           0.08067897586849954          1.0000   
         C         C         1.0       0.8074657293378894  0.2655207529446761  0.10618577469408642          1.0000   
         C         C         1.0       0.8361122365267422  0.25659960460528664           0.12069754407569798          1.0000   
         C         C         1.0       0.8569510442158144  0.23100663876102218           0.1098179124877819 1.0000   
         H         H         1.0       0.871714761808774   0.2507921331833094  0.30432094450078667          1.0000   
         H         H         1.0       0.8669399840115908  0.16399440928528816           0.2432106757671175 1.0000   
         H         H         1.0       0.8249263334570923  0.1369906525998279  0.27153834551790484          1.0000   
         H         H         1.0       0.8296269937212345  0.22240092483430787           0.33157261916443953          1.0000   
         H         H         1.0       0.926255137799207   0.16201895103905506           0.24442597939014474          1.0000   
         H         H         1.0       0.9707334939679259  0.13528593423018528           0.27333416008326133          1.0000   
         H         H         1.0       0.9738573188745673  0.22251553924152448           0.325269246640805  1.0000   
         H         H         1.0       0.9438887371070761  0.25677804592951453           0.29342259568843737          1.0000   
         H         H         1.0       0.8453923011228484  0.22176609455027885           0.2188327265384582 1.0000   
         H         H         1.0       0.8404355958997917  0.2141940626373996  0.165474158750298  1.0000   
         H         H         1.0       0.9487186298789906  0.22279648623733997           0.15698221287537276          1.0000   
         H         H         1.0       0.9543605462260799  0.22104682926325725           0.2075075752794049 1.0000   
         H         H         1.0       0.8965931908820903  0.09814050747938441           0.1197478865532588 1.0000   
         H         H         1.0       0.869321535570283   0.15801874177218395           0.1292677461695868 1.0000   
         H         H         1.0       0.9601478330864667  0.20479672195718684           0.09797782211771197          1.0000   
         H         H         1.0       0.9834037425451223  0.15061436700695638           0.08982965751754782          1.0000   
         H         H         1.0       0.913546815412807   0.28785732449039664           0.1508005753172692 1.0000   
         H         H         1.0       0.9563582721048118  0.3263444871900133  0.13420791165034096          1.0000   
         H         H         1.0       0.9544731742487446  0.2815938956474129  0.05274166267851432          1.0000   
         H         H         1.0       0.9121824287231911  0.24220735859771805           0.0662041033194962 1.0000   
         H         H         1.0       0.8669672069678849  0.19913605194046985           0.07394742268576233          1.0000   
         H         H         1.0       0.8192975374156363  0.21139563722535445           0.0492398210786475 1.0000   
         H         H         1.0       0.7920238259318552  0.2855019147338616  0.11751557424588518          1.0000   
         H         H         1.0       0.845053364332292   0.2712908572201585  0.1389411286149278 1.0000   
         C         C         1.0       0.835008159293796   0.1817281358828915  0.8233035187576425 1.0000   
         C         C         1.0       0.8225738268590198  0.1635034519160199  0.8463416356445552 1.0000   
         C         C         1.0       0.84266470311677    0.15589497645906492           0.8699804397684331 1.0000   
         C         C         1.0       0.8765646798770071  0.1634536645752954  0.8707631993347787 1.0000   
         C         C         1.0       0.8888123707907194  0.18238856871864456           0.8459628684373199 1.0000   
         C         C         1.0       0.867894996880565   0.1925295413935731  0.8240028049857372 1.0000   
         H         H         1.0       0.7972012244496892  0.1572551855755946  0.8499642833434268 1.0000   
         H         H         1.0       0.8292574434479654  0.14677582424231983           0.8896843360361016 1.0000   
         H         H         1.0       0.9141571146315599  0.193307570581004   0.844394417678337  1.0000   
         H         H         1.0       0.8789390780834497  0.21179275173857237           0.8089762837629824 1.0000   
         C         C         1.0       0.9429612887238151  0.12346253033248458           0.8686718344478905 1.0000   
         C         C         1.0       0.9351157917153883  0.14559138326065532           0.8918738010172382 1.0000   
         C         C         1.0       0.9614115630873038  0.1562387784284285  0.9091858366858101 1.0000   
         C         C         1.0       0.9937307578573051  0.14778607808228034           0.9038408628790174 1.0000   
         C         C         1.0       0.002359317580874043          0.12738611429985905          0.8808994525982867 1.0000   
         C         C         1.0       0.9762854943174027  0.11599537797362042           0.8639059350937497 1.0000   
         C         C         1.0       0.8983301709761469  0.1561028773933258  0.8991706445430558 1.0000   
         C         C         1.0       0.8873540348001796  0.11889002471366909           0.9147431633831453 1.0000   
         C         C         1.0       0.8994934894874879  0.11454295049151828           0.9419395106097426 1.0000   
         C         C         1.0       0.8978346103855598  0.08451907920305946           0.956459462608504  1.0000   
         C         C         1.0       0.8824209591866276  0.05670293738810073           0.9435133474817524 1.0000   
         C         C         1.0       0.8708938881510799  0.060071629678540184         0.9149864154712236 1.0000   
         C         C         1.0       0.873413755375911   0.09038116677342667           0.901449171540826  1.0000   
         C         C         1.0       0.9123554235195472  0.21897130461119846           0.9100503273278495 1.0000   
         C         C         1.0       0.9095724625549106  0.24885103153520807           0.925754114485585  1.0000   
         C         C         1.0       0.8869373342703002  0.252191985244102   0.9482567748918969 1.0000   
         C         C         1.0       0.8661919638063309  0.2237258035976212  0.9531218041589836 1.0000   
         C         C         1.0       0.867073103396491   0.19460485605433023           0.9370140772694056 1.0000   
         C         C         1.0       0.8923802930280078  0.19134964873449442           0.9166794521945082 1.0000   
         C         C         1.0       0.890252135114028   0.2815502568252227  0.9712308944341546 1.0000   
         C         C         1.0       0.9722172649946859  0.22655187301144453           0.013991070564855823         1.0000   
         C         C         1.0       0.977799916520646   0.2577855887751979  0.0009097684159546926        1.0000   
         C         C         1.0       0.9531123532082126  0.2749386801474491  0.9871983146702491 1.0000   
         C         C         1.0       0.9197589505623068  0.26505027379728513           0.9904109650328669 1.0000   
         C         C         1.0       0.913261335489979   0.23497104656340795           0.00584934191567843          1.0000   
         C         C         1.0       0.9384692464212706  0.21506483318830255           0.016618470754624415         1.0000   
         C         C         1.0       0.8607800778158002  0.2892804606962856  0.9927599252538339 1.0000   
         C         C         1.0       0.8277915010630318  0.2885887782292417  0.9832746861540894 1.0000   
         C         C         1.0       0.799971309404295   0.2926935675581979  0.00047215638420672335       1.0000   
         C         C         1.0       0.8054902768605242  0.30068145778143207           0.028595246344265135         1.0000   
         C         C         1.0       0.8381091086044615  0.3056986658285897  0.038095343878980836         1.0000   
         C         C         1.0       0.8649050496539721  0.29959449132755184           0.02084644747617692          1.0000   
         C         C         1.0       0.9099577155601445  0.34462495663273907           0.9709142757526933 1.0000   
         C         C         1.0       0.913708059605308   0.3771167240185887  0.9583016110239622 1.0000   
         C         C         1.0       0.902007019500233   0.38243411196921306           0.9306932295636672 1.0000   
         C         C         1.0       0.8866460916370223  0.356679687935859   0.9161843333804758 1.0000   
         C         C         1.0       0.8815793168910162  0.3248958762494099  0.9290470119335288 1.0000   
         C         C         1.0       0.8946820152832002  0.3176773942221377  0.9562418200591207 1.0000   
         H         H         1.0       0.9226775978249617  0.11183683544499777           0.856012918688596  1.0000   
         H         H         1.0       0.9597034899390684  0.17081792482206856           0.9288978727581183 1.0000   
         H         H         1.0       0.013190549061484758          0.15735407137591018          0.9177796133181169 1.0000   
         H         H         1.0       0.9820037349911666  0.10202333537538277           0.8442972979947544 1.0000   
         H         H         1.0       0.9106713033508527  0.13518332204366723           0.9526343791617565 1.0000   
         H         H         1.0       0.9054827700109179  0.08262964321953015           0.9775401603406394 1.0000   
         H         H         1.0       0.8608049283888137  0.03834150118264823           0.902231481254358  1.0000   
         H         H         1.0       0.8674272986156403  0.09286620572507576           0.8794041652008908 1.0000   
         H         H         1.0       0.9281687895599732  0.21911792675007388           0.8899014312655499 1.0000   
         H         H         1.0       0.9212932837438083  0.2726448428858541  0.9162567915320868 1.0000   
         H         H         1.0       0.850014782473258   0.22191273436408115           0.9727489205494496 1.0000   
         H         H         1.0       0.8507835847681832  0.17255964654015274           0.9413484818095709 1.0000   
         H         H         1.0       0.003970619063746295          0.26732615812892085          0.9968597532965113 1.0000   
         H         H         1.0       0.9585597562676353  0.29595648401141905           0.9730508123131261 1.0000   
         H         H         1.0       0.8883361187158828  0.2215962240836517  0.007785649642854997         1.0000   
         H         H         1.0       0.9301297855436336  0.19370205620990913           0.02990009337927968          1.0000   
         H         H         1.0       0.8209715600918187  0.2799123088629674  0.9618640196981987 1.0000   
         H         H         1.0       0.776303113384929   0.28771577884689614           0.991286117498551  1.0000   
         H         H         1.0       0.8465082392108613  0.312248947837475   0.060592368223994254         1.0000   
         H         H         1.0       0.8882435214835365  0.30651052101546905           0.02900617824001528          1.0000   
         H         H         1.0       0.9210171043855326  0.34234926769453805           0.9910026454118718 1.0000   
         H         H         1.0       0.9237740091010613  0.39526105920317023           0.9715398802216763 1.0000   
         H         H         1.0       0.8828392164636645  0.3608072722699308  0.8932766664110667 1.0000   
         H         H         1.0       0.8669799130938616  0.3067877740943024  0.9173077699138411 1.0000   
         C         C         1.0       0.9648878316787103  0.8509478135577313  0.2553862353606367 1.0000   
         C         C         1.0       0.9620069035055082  0.8858784188197019  0.25992557272344563          1.0000   
         C         C         1.0       0.9912545381013327  0.9033122264744591  0.2679612514052238 1.0000   
         C         C         1.0       0.024037497376921735          0.8890369631122764 0.2647141017465892 1.0000   
         C         C         1.0       0.024480056309360343          0.8552673356590248 0.25594842520109023          1.0000   
         C         C         1.0       0.9956463824316875  0.8349162248319699  0.2556877710956397 1.0000   
         H         H         1.0       0.9375193011051904  0.8985360624083841  0.2590696619959764 1.0000   
         H         H         1.0       0.9875229149547096  0.9296408326979171  0.2761885940627676 1.0000   
         H         H         1.0       0.04774324338839175           0.8420850584005957 0.25376521731656965          1.0000   
         H         H         1.0       0.9975507455695942  0.8066533114983848  0.25342661338586525          1.0000   
         C         C         1.0       0.0808962448130417  0.8631639675927921  0.30419015323615206          1.0000   
         C         C         1.0       0.08789224574046728           0.8894530900163568 0.28383788380152425          1.0000   
         C         C         1.0       0.12135469246728431           0.8969888045776758 0.2788543834929423 1.0000   
         C         C         1.0       0.14833947047905766           0.8774790106134284 0.29022109645879524          1.0000   
         C         C         1.0       0.1402664314969266  0.8505780032405214  0.3089954041105752 1.0000   
         C         C         1.0       0.10606000879636467           0.8434590078410136 0.31471037689396564          1.0000   
         C         C         1.0       0.05761218557182479           0.9119364322339623 0.27112495030014144          1.0000   
         C         C         1.0       0.054726761390647916          0.9411403474438081 0.2958676301882009 1.0000   
         C         C         1.0       0.07080256798396088           0.9733375929433001 0.29457794349651784          1.0000   
         C         C         1.0       0.06464513372012792           0.997897088318103  0.31458745892136153          1.0000   
         C         C         1.0       0.04326301262258658           0.9913398289532981 0.3360759050073874 1.0000   
         C         C         1.0       0.027334305817659388          0.9609486794973638 0.3384248524496905 1.0000   
         C         C         1.0       0.0330168819566905  0.9353418410522758  0.3192188956233559 1.0000   
         C         C         1.0       0.07564976552807087           0.9059010178527489 0.21754658518375222          1.0000   
         C         C         1.0       0.06731494230764332           0.9121419218480461 0.18896935028736556          1.0000   
         C         C         1.0       0.04645680673096786           0.9389339411024171 0.18090095200363665          1.0000   
         C         C         1.0       0.039634080868071964          0.9623267153627033 0.20203415317616025          1.0000   
         C         C         1.0       0.046820220305420206          0.9559544700544956 0.2297533132849286 1.0000   
         C         C         1.0       0.06251978057169497           0.9265145358224774 0.2390267370375417 1.0000   
         C         C         1.0       0.03176689075849648           0.9412788168980971 0.14889825496848424          1.0000   
         C         C         1.0       0.10679847479243322           0.9035506833570567 0.08438811670873035          1.0000   
         C         C         1.0       0.07328604227253305           0.8983791809874864 0.07942021197713568          1.0000   
         C         C         1.0       0.04924166800814911           0.9108056427321711 0.09905402596754155          1.0000   
         C         C         1.0       0.057967432859604484          0.9280697860891071 0.12483803793091217          1.0000   
         C         C         1.0       0.09175907967467944           0.9332834671402909 0.1284254517128117 1.0000   
         C         C         1.0       0.1159461804776535  0.9234765396939106  0.10779654359043343          1.0000   
         C         C         1.0       0.02107560611439019           0.9803135982208052 0.1413959663320695 1.0000   
         C         C         1.0       0.9904039924045216  0.9938603145888938  0.1522698927847109 1.0000   
         C         C         1.0       0.9788972651098613  0.02613333781571492           0.14496861704100836          1.0000   
         C         C         1.0       0.9991736591914501  0.04622312407570517           0.1261245640555143 1.0000   
         C         C         1.0       0.0306123399127054  0.03463740194794673           0.11783900610732845          1.0000   
         C         C         1.0       0.03994877742012126           0.0017363635108167408        0.1240096745789413 1.0000   
         C         C         1.0       0.9757477359717357  0.9211164178946469  0.1263610133936645 1.0000   
         C         C         1.0       0.9502026309666706  0.8977477177985166  0.12070999057653227          1.0000   
         C         C         1.0       0.947528726670906   0.8686257106774677  0.13750972554909172          1.0000   
         C         C         1.0       0.9716186577302004  0.8632575851643811  0.1580423176804816 1.0000   
         C         C         1.0       0.9956144643399583  0.8864360034324389  0.1637022910318617 1.0000   
         C         C         1.0       0.0005222045879880177         0.9154871809927978 0.14750087976566467          1.0000   
         H         H         1.0       0.05496514209709913           0.8559573990052753 0.31022992159676316          1.0000   
         H         H         1.0       0.12730556244039018           0.9209162835402604 0.26737533860806667          1.0000   
         H         H         1.0       0.17422486535296078           0.8872864934377723 0.28767744798167655          1.0000   
         H         H         1.0       0.09820468174492099           0.8246527670442154 0.33027821265666607          1.0000   
         H         H         1.0       0.09146435922190815           0.9752582090950818 0.27938693189141234          1.0000   
         H         H         1.0       0.0762318210081586  0.022498790528414414         0.31391504075928794          1.0000   
         H         H         1.0       0.01101612847520439           0.9575848480598486 0.3572784079435014 1.0000   
         H         H         1.0       0.019695620029756   0.9125302911679943  0.3224660011980078 1.0000   
         H         H         1.0       0.0914187607165796  0.8842161556619882  0.22164216727294453          1.0000   
         H         H         1.0       0.0784242868662515  0.8924979988264252  0.17384524065143397          1.0000   
         H         H         1.0       0.025082979660703497          0.9844599008616275 0.19736958382914796          1.0000   
         H         H         1.0       0.03429006762028841           0.9728890624838681 0.24436799461337738          1.0000   
         H         H         1.0       0.06455485356359858           0.8809257985432761 0.06179621313942865          1.0000   
         H         H         1.0       0.02441031041385533           0.9066476106659234 0.09205198594792277          1.0000   
         H         H         1.0       0.10132495156382051           0.9457993120503739 0.1473108013258779 1.0000   
         H         H         1.0       0.14133859807283977           0.9286296623613506 0.1121220975474027 1.0000   
         H         H         1.0       0.9754798848300803  0.978657249468051   0.166073560131459  1.0000   
         H         H         1.0       0.956970063116388   0.0376308748014198  0.15406965625933036          1.0000   
         H         H         1.0       0.04700828922253386           0.048022399436780994         0.10486805000577877          1.0000   
         H         H         1.0       0.06366554344184104           0.9945398490601175 0.11600982388012399          1.0000   
         H         H         1.0       0.9810612859467125  0.9417536493390899  0.11232452411258925          1.0000   
         H         H         1.0       0.9357255568807464  0.905665828026903   0.10174285450900589          1.0000   
         H         H         1.0       0.9682672893359875  0.8402934970754921  0.1705225693276177 1.0000   
         H         H         1.0       0.015455942115262244          0.8790659051437537 0.1795616423397664 1.0000   
         C         C         1.0       0.13422014869628607           0.8391134373945354 0.9073563260798436 1.0000   
         C         C         1.0       0.1362338701532506  0.8581755599381061  0.9323184660552832 1.0000   
         C         C         1.0       0.11021128532459334           0.8802795602289414 0.9401890274412333 1.0000   
         C         C         1.0       0.07999765615484482           0.8806236119436075 0.9240736204156557 1.0000   
         C         C         1.0       0.07778260895295838           0.8576527522096951 0.9011418724068994 1.0000   
         C         C         1.0       0.10428573939230111           0.837465895784658  0.8927174951016569 1.0000   
         H         H         1.0       0.156511883335149   0.8590981319937888  0.9464470758628675 1.0000   
         H         H         1.0       0.1103934757671031  0.8927579678665021  0.9619855421819953 1.0000   
         H         H         1.0       0.055178907831213264          0.8562319643736991 0.8890172927510793 1.0000   
         H         H         1.0       0.10184421550582037           0.8200131502961258 0.8744743919193279 1.0000   
         C         C         1.0       0.044700393455441974          0.9298986442096204 0.8783868093189412 1.0000   
         C         C         1.0       0.030932141413160252          0.9275540578733517 0.9060782566159021 1.0000   
         C         C         1.0       0.999506151466237   0.9416093500620915  0.9114374050116618 1.0000   
         C         C         1.0       0.9816849119199172  0.9594996195237214  0.8911066367806867 1.0000   
         C         C         1.0       0.9933615374998771  0.9584567548939797  0.8630300956129705 1.0000   
         C         C         1.0       0.025330443728430515          0.9458792271122444 0.8576029612276027 1.0000   
         C         C         1.0       0.05136853650841933           0.9086106589957789 0.9310836578113568 1.0000   
         C         C         1.0       0.06660245449049647           0.9433384957877738 0.9431269249835103 1.0000   
         C         C         1.0       0.05249455835378569           0.9640454073955385 0.9654386218224599 1.0000   
         C         C         1.0       0.06865549521153798           0.9917365554981702 0.9771416804116807 1.0000   
         C         C         1.0       0.10120143605880204           0.9982393500081362 0.9688299287523439 1.0000   
         C         C         1.0       0.11511086694235914           0.9840941268469918 0.9452365071346235 1.0000   
         C         C         1.0       0.09821443525371144           0.9559998566955613 0.9320389619871972 1.0000   
         C         C         1.0       0.00550772686590828           0.8666756657748185 0.9366082302461954 1.0000   
         C         C         1.0       0.9770435475448671  0.8572188556373267  0.9511403636385856 1.0000   
         C         C         1.0       0.970561348063494   0.8638844770030332  0.9794050309761764 1.0000   
         C         C         1.0       0.9971592944154047  0.8777475076034283  0.9955999644440974 1.0000   
         C         C         1.0       0.026011034223639925          0.8885915792120651 0.9800546861658359 1.0000   
         C         C         1.0       0.028132790664930685          0.887024536060568  0.9509172675430827 1.0000   
         C         C         1.0       0.9326564958484449  0.8640293158571499  0.9945194548136512 1.0000   
         C         C         1.0       0.9201548342429627  0.9685816898162402  0.9683526231026703 1.0000   
         C         C         1.0       0.9179994378478445  0.9424081946254785  0.9483170051250589 1.0000   
         C         C         1.0       0.9175630746738926  0.909729362184244   0.9589867262898811 1.0000   
         C         C         1.0       0.9241280888767668  0.9023452970003751  0.987291523781436  1.0000   
         C         C         1.0       0.9271370170479987  0.9294965751671356  0.007083311062960451         1.0000   
         C         C         1.0       0.9240114139658754  0.9618507560764262  0.9974734533859929 1.0000   
         C         C         1.0       0.928409420124628   0.8538181389696967  0.0263841872569599 1.0000   
         C         C         1.0       0.9512632899737299  0.8328649491787431  0.04059891971842977          1.0000   
         C         C         1.0       0.9451681284842328  0.8205050458657426  0.06715134217792684          1.0000   
         C         C         1.0       0.9172546917410932  0.829800345271655   0.0821233728616332 1.0000   
         C         C         1.0       0.8943188345062767  0.8513657441585607  0.06880090934810063          1.0000   
         C         C         1.0       0.8995960329079974  0.8618154642959535  0.040912065867187764         1.0000   
         C         C         1.0       0.8741513729665945  0.8423408037202477  0.9785078074878896 1.0000   
         C         C         1.0       0.8522084118162132  0.8188824665064424  0.967879450425429  1.0000   
         C         C         1.0       0.8649093613467409  0.786409360007041   0.960014504180168  1.0000   
         C         C         1.0       0.8990529936531582  0.7787919678380373  0.9623861515849794 1.0000   
         C         C         1.0       0.9205224602688434  0.802464573234845   0.9727796268764352 1.0000   
         C         C         1.0       0.9087766403442541  0.8365102558173215  0.9789200685380748 1.0000   
         H         H         1.0       0.07018591891233351           0.9240233148189898 0.8741154891720211 1.0000   
         H         H         1.0       0.9874462117615779  0.9432551044254355  0.933933937663449  1.0000   
         H         H         1.0       0.9579884856934574  0.9698925411161353  0.8956616809339808 1.0000   
         H         H         1.0       0.03408301185442597           0.9516712441937567 0.8365891790562162 1.0000   
         H         H         1.0       0.02537592066381489           0.9559851278232994 0.9712249133741756 1.0000   
         H         H         1.0       0.05535122552232608           0.005767151417419791         0.9945791713297532 1.0000   
         H         H         1.0       0.14116765214224866           0.9886441088820279 0.9397765734393545 1.0000   
         H         H         1.0       0.11340454368753869           0.9418274557134585 0.915659165772088  1.0000   
         H         H         1.0       0.005725647321293437          0.8624567627014231 0.9135249196344305 1.0000   
         H         H         1.0       0.9570375779781647  0.8463227837662077  0.9388214308199367 1.0000   
         H         H         1.0       0.9932389228821857  0.8875546672161152  0.01631107431405776          1.0000   
         H         H         1.0       0.04215363030037756           0.9036606691494039 0.9929743362968134 1.0000   
         H         H         1.0       0.9127212953553685  0.9507014195408832  0.9268950487475328 1.0000   
         H         H         1.0       0.9126791054688346  0.8897865033177861  0.9425434646742111 1.0000   
         H         H         1.0       0.9284384506842824  0.9253674094567441  0.03031147480673635          1.0000   
         H         H         1.0       0.926840415962201   0.9823043086134667  0.013257275837299964         1.0000   
         H         H         1.0       0.9761238915803637  0.8288429572561345  0.030467953154790672         1.0000   
         H         H         1.0       0.9625224253170476  0.803479678749427   0.07731676895054984          1.0000   
         H         H         1.0       0.8704428184739502  0.8557162312137921  0.07980715835801279          1.0000   
         H         H         1.0       0.8807815500702912  0.8805457997678394  0.03280692980715694          1.0000   
         H         H         1.0       0.8646481472677523  0.8687708055427572  0.98122910280821   1.0000   
         H         H         1.0       0.8259228260447976  0.8254019273493256  0.9659891631102697 1.0000   
         H         H         1.0       0.9084592934957265  0.7558790315359186  0.9540806260401441 1.0000   
         H         H         1.0       0.9448363136471335  0.7958209862266898  0.9770566019241423 1.0000   
         C         C         1.0       0.2554736469341325  0.8431907255107295  0.2448605672373846 1.0000   
         C         C         1.0       0.22399037816517414           0.8597059330342974 0.24505728047787398          1.0000   
         C         C         1.0       0.22185470570278368           0.8947280911075745 0.24657386869546136          1.0000   
         C         C         1.0       0.2509397122721558  0.9135214564776438  0.2502037072574252 1.0000   
         C         C         1.0       0.2825131570433326  0.8975113029757332  0.2481881310456264 1.0000   
         C         C         1.0       0.2842763221494386  0.8630953372472284  0.24667026568410907          1.0000   
         H         H         1.0       0.20170720236450165           0.846264981485347  0.24078252248166887          1.0000   
         H         H         1.0       0.19863254870862238           0.9073438024618429 0.2462009061276629 1.0000   
         H         H         1.0       0.30632258279277075           0.91113435315207   0.24780430392901276          1.0000   
         H         H         1.0       0.3089259082132678  0.85139000641697    0.24596592663747627          1.0000   
         C         C         1.0       0.2889055034055729  0.9577566614407786  0.2953503929991062 1.0000   
         C         C         1.0       0.27636687785143543           0.9723464641008028 0.27044569716929145          1.0000   
         C         C         1.0       0.29011849362391917           0.004651641738459222         0.2642978380751752 1.0000   
         C         C         1.0       0.3116936524223479  0.020500644262174458         0.2822768815781062 1.0000   
         C         C         1.0       0.3220260902172452  0.006486857648784427         0.3075934716723468 1.0000   
         C         C         1.0       0.308819861916006   0.9743615105069866  0.31405976335012226          1.0000   
         C         C         1.0       0.247874926476221   0.9544197010355026  0.25144985014333937          1.0000   
         C         C         1.0       0.21424369779748925           0.9707367200397318 0.2668947841216035 1.0000   
         C         C         1.0       0.20410279202454823           0.002830634807317933         0.26021912053013385          1.0000   
         C         C         1.0       0.17899246535240199           0.02016355175358253          0.27536830172468196          1.0000   
         C         C         1.0       0.16660802008114112           0.005333675612534172         0.29998077996305755          1.0000   
         C         C         1.0       0.1767720068602122  0.9718110164089476  0.30690755729533037          1.0000   
         C         C         1.0       0.20000803925799654           0.9552792087791401 0.2909781733328909 1.0000   
         C         C         1.0       0.2762902859200876  0.9707923809339085  0.2052237109191249 1.0000   
         C         C         1.0       0.27784776750971024           0.9788397417133967 0.176464175709043  1.0000   
         C         C         1.0       0.24936170198209454           0.9726003164126331 0.15930996711278664          1.0000   
         C         C         1.0       0.2190655677127599  0.9649248092050878  0.17285388174116048          1.0000   
         C         C         1.0       0.21798012256180516           0.9609052595704568 0.20170907671108315          1.0000   
         C         C         1.0       0.2461773213436011  0.9617143360217425  0.21802303201579332          1.0000   
         C         C         1.0       0.25071598636726594           0.9716993788850669 0.12449992391555845          1.0000   
         C         C         1.0       0.20504095240359313           0.07266207382945893          0.10742613917850985          1.0000   
         C         C         1.0       0.23853515186536395           0.06981272409442581          0.11519082129900873          1.0000   
         C         C         1.0       0.2529047902425126  0.037218743671842074         0.1167860245507144 1.0000   
         C         C         1.0       0.23352023815378345           0.00784529721914784          0.11759315964483875          1.0000   
         C         C         1.0       0.198740330733843   0.012697060503917834         0.11169153850524244          1.0000   
         C         C         1.0       0.18625855669804764           0.043625601077628355         0.10227631196516478          1.0000   
         C         C         1.0       0.2320190388405991  0.9397598267286513  0.10948387701792772          1.0000   
         C         C         1.0       0.22570800042411238           0.909156729447171  0.123141997964222  1.0000   
         C         C         1.0       0.2047108777677703  0.8855397799258449  0.11228355815744161          1.0000   
         C         C         1.0       0.1918791225888725  0.891546433039749   0.08537107688403225          1.0000   
         C         C         1.0       0.20094412887802246           0.9195363578476377 0.06892878471942018          1.0000   
         C         C         1.0       0.22018971465429596           0.9442132595980597 0.08177011702638018          1.0000   
         C         C         1.0       0.2973273772725583  0.9801771347433142  0.0848068001687478 1.0000   
         C         C         1.0       0.3286589924130139  0.9720946704353128  0.07078868351027215          1.0000   
         C         C         1.0       0.34893874762697336           0.9454673018661884 0.08215887465978369          1.0000   
         C         C         1.0       0.33784628249607923           0.9309371830574197 0.10768896173653145          1.0000   
         C         C         1.0       0.30900656584956937           0.9413659010050175 0.12245745567456227          1.0000   
         C         C         1.0       0.2882890906487218  0.9660333521035098  0.11127340784632823          1.0000   
         H         H         1.0       0.28003557460888395           0.9329888924701966 0.3015155975077542 1.0000   
         H         H         1.0       0.2835146544844946  0.019693998953198563         0.24464561043133073          1.0000   
         H         H         1.0       0.3232732188345058  0.04455117032266109           0.27587654762573244          1.0000   
         H         H         1.0       0.3195094055262043  0.9597993008859308  0.3311157141705276 1.0000   
         H         H         1.0       0.21586308897552622           0.014381923334092939         0.24164192307954066          1.0000   
         H         H         1.0       0.1734233158908146  0.0465662177888595  0.2681236291951707 1.0000   
         H         H         1.0       0.16442791216444455           0.9627681982690123 0.32654313600034185          1.0000   
         H         H         1.0       0.21006205991656313           0.930972721810737  0.2985129713058586 1.0000   
         H         H         1.0       0.3017984382499855  0.9717385206406072  0.2146911834854803 1.0000   
         H         H         1.0       0.30348818184281146           0.9867762501990772 0.1679650175777779 1.0000   
         H         H         1.0       0.19631687945015966           0.9634023485921165 0.1604615334604487 1.0000   
         H         H         1.0       0.19292333334090345           0.9576387108146677 0.2118645573089505 1.0000   
         H         H         1.0       0.252423679924999   0.09290600746767921           0.11630944872117294          1.0000   
         H         H         1.0       0.2793038663309894  0.03627762641919041           0.12088436218073649          1.0000   
         H         H         1.0       0.18276490820461055           0.991139560914316  0.11411094305579776          1.0000   
         H         H         1.0       0.16064433774349932           0.04554983835296755          0.09628327516733291          1.0000   
         H         H         1.0       0.235929019338398   0.8999444313330489  0.14362745368036814          1.0000   
         H         H         1.0       0.19828236222351373           0.8632854458712157 0.1247933959624799 1.0000   
         H         H         1.0       0.18947166102609037           0.9224474898349415 0.04922870162846   1.0000   
         H         H         1.0       0.22410435137107088           0.9669071996831974 0.0687648355243608 1.0000   
         H         H         1.0       0.2839600037832622  0.9998630438560251  0.07602344663351253          1.0000   
         H         H         1.0       0.3377079911889741  0.9834319182319387  0.05129250608176703          1.0000   
         H         H         1.0       0.3507139086763526  0.9097641451812819  0.11682425644471832          1.0000   
         H         H         1.0       0.3008902978773141  0.9284544384902469  0.14198923916407313          1.0000   
         C         C         1.0       0.3156319167999304  0.003147942408495696         0.8137063953914192 1.0000   
         C         C         1.0       0.3308098244889608  0.02185392464838576           0.8346818773202835 1.0000   
         C         C         1.0       0.3124922017267619  0.036079821357075215         0.8576546727276836 1.0000   
         C         C         1.0       0.2780287164842191  0.02969877706868651           0.8604674267079899 1.0000   
         C         C         1.0       0.26256861188952463           0.008753657591704878         0.8396450541349572 1.0000   
         C         C         1.0       0.2816354394036416  0.9972299529733278  0.8160613926417029 1.0000   
         H         H         1.0       0.3583064835406903  0.026868630143142665         0.835192443345897  1.0000   
         H         H         1.0       0.3233082067755875  0.052820817171984606         0.8726356153378252 1.0000   
         H         H         1.0       0.23628797573864027           0.002461172781780263         0.8407429118589379 1.0000   
         H         H         1.0       0.2709930213566596  0.9842706738945174  0.8002747001243408 1.0000   
         C         C         1.0       0.21059018984092617           0.07247431520451691          0.8578778346547029 1.0000   
         C         C         1.0       0.21904713196128706           0.05180002681877438          0.8809593028839064 1.0000   
         C         C         1.0       0.19239328632950123           0.04245680120584949          0.8985411841959708 1.0000   
         C         C         1.0       0.1594771953000165  0.05227872370367148           0.8929221301824001 1.0000   
         C         C         1.0       0.15322915328389908           0.07033563111278003          0.8691461523895925 1.0000   
         C         C         1.0       0.17897560848521035           0.08192655878964288          0.8513671765358081 1.0000   
         C         C         1.0       0.2570542363177724  0.04250783567846961           0.8886995470985691 1.0000   
         C         C         1.0       0.2671017661642381  0.07549559759426631           0.9062989223134712 1.0000   
         C         C         1.0       0.2532064073083018  0.08101895601512797           0.9327945800979893 1.0000   
         C         C         1.0       0.2566710287820765  0.11011528683883667           0.9479560336453301 1.0000   
         C         C         1.0       0.2683854851588467  0.13964817408058997           0.9341760144668586 1.0000   
         C         C         1.0       0.2812204776469433  0.1354206215674967  0.9067540674739941 1.0000   
         C         C         1.0       0.28196907791993786           0.10408762935815612          0.8931430092857728 1.0000   
         C         C         1.0       0.24274625066697475           0.9790156046719765 0.9008422221098682 1.0000   
         C         C         1.0       0.24239375211630257           0.9521051548419279 0.9195657405925142 1.0000   
         C         C         1.0       0.26173773727703775           0.9540856239007699 0.9448853531674624 1.0000   
         C         C         1.0       0.2839649246003882  0.9812864080710615  0.9482583887498112 1.0000   
         C         C         1.0       0.2839478239044249  0.00795141332468341           0.9297354003106765 1.0000   
         C         C         1.0       0.2612475022312054  0.009106483189752268         0.9075560907839647 1.0000   
         C         C         1.0       0.2550341986228929  0.9239356265874888  0.9677782914127322 1.0000   
         C         C         1.0       0.16781042944256214           0.9775731836964477 0.005100442717706821         1.0000   
         C         C         1.0       0.16435762264568138           0.9483517762343645 0.9893340785523058 1.0000   
         C         C         1.0       0.19129612876522056           0.9317705166156195 0.9786767925598252 1.0000   
         C         C         1.0       0.224511424471017   0.9426147854649884  0.9841255731526198 1.0000   
         C         C         1.0       0.22744184497570955           0.9709941914370953 0.0027194244077530794        1.0000   
         C         C         1.0       0.19999338185675092           0.9881134373415548 0.012363363570342845         1.0000   
         C         C         1.0       0.28677798650780634           0.9177320301001963 0.9895552420179238 1.0000   
         C         C         1.0       0.32007069058609916           0.914842328742209  0.9792381401510051 1.0000   
         C         C         1.0       0.3443108966040358  0.9047074743033965  0.9986173257771934 1.0000   
         C         C         1.0       0.3361985386015248  0.8990509484605351  0.027402044965808114         1.0000   
         C         C         1.0       0.3034072909096858  0.8965817155487358  0.03634326218013073          1.0000   
         C         C         1.0       0.2788390761293014  0.9104133466004207  0.01923284844200257          1.0000   
         C         C         1.0       0.23304584702758438           0.8610475676273466 0.9737394350051344 1.0000   
         C         C         1.0       0.2337955894186716  0.826768931408286   0.9663509676643635 1.0000   
         C         C         1.0       0.25324162786443466           0.816407391481051  0.9436550695006677 1.0000   
         C         C         1.0       0.27059751615880456           0.840059980909986  0.9274107490602085 1.0000   
         C         C         1.0       0.2671737367391995  0.8738407931546055  0.9323790457779163 1.0000   
         C         C         1.0       0.24893304476881364           0.8854008248587071 0.9570845783511791 1.0000   
         H         H         1.0       0.2295652807762468  0.07879718515209565           0.841642166801278  1.0000   
         H         H         1.0       0.19503233166322426           0.02670330303579349          0.9186024651876648 1.0000   
         H         H         1.0       0.13906179401488364           0.042941681128069176         0.9047123552334397 1.0000   
         H         H         1.0       0.1744808133580154  0.09729115782865713           0.8323216184617634 1.0000   
         H         H         1.0       0.2414880106795176  0.06035818381116648           0.9432181674818079 1.0000   
         H         H         1.0       0.24747285046112175           0.1100464168089982 0.9699886314574325 1.0000   
         H         H         1.0       0.29184577223992214           0.15727165221468925          0.8963610432480281 1.0000   
         H         H         1.0       0.2922897998510681  0.10418835694067252           0.8717868975225206 1.0000   
         H         H         1.0       0.22672206648666823           0.9789005907763714 0.8823573639897488 1.0000   
         H         H         1.0       0.22496661374087062           0.9295467843908978 0.916044561283598  1.0000   
         H         H         1.0       0.3033681934427503  0.9845304485336759  0.9635154582799035 1.0000   
         H         H         1.0       0.30253664453507134           0.02805859179842529          0.9308147471682486 1.0000   
         H         H         1.0       0.1398490717902666  0.9397415479006549  0.9812498809683775 1.0000   
         H         H         1.0       0.184833141299568   0.91094475743089    0.9627702414116203 1.0000   
         H         H         1.0       0.25164738657775    0.9822091929196778  0.007118695865323543         1.0000   
         H         H         1.0       0.20159299572352524           0.010860196191155858         0.023899960126248176         1.0000   
         H         H         1.0       0.32763901035730575           0.9185785886975945 0.9585270362838253 1.0000   
         H         H         1.0       0.3696659102623233  0.9037257138825716  0.9916751088806446 1.0000   
         H         H         1.0       0.297540554369125   0.8899834295880894  0.058410965369341206         1.0000   
         H         H         1.0       0.2546732010578072  0.9079106852083032  0.028637512996213976         1.0000   
         H         H         1.0       0.22050230298830625           0.8702866537170791 0.9929679915549599 1.0000   
         H         H         1.0       0.21961280958348708           0.8102642744759966 0.9804005167123885 1.0000   
         H         H         1.0       0.28876162055327576           0.8314773516248019 0.9119184462099222 1.0000   
         H         H         1.0       0.2825974286617162  0.8908997724545715  0.91797560830264   1.0000   
         C         C         1.0       0.1851746342360298  0.33317092178638114           0.2667687493462999 1.0000   
         C         C         1.0       0.1833040146126149  0.29991920060158345           0.27237818253777146          1.0000   
         C         C         1.0       0.15289309469214696           0.28447307449913883          0.27881663839812953          1.0000   
         C         C         1.0       0.12278734051222534           0.3026888863036596 0.2813354716663358 1.0000   
         C         C         1.0       0.1245199740097186  0.3382927334625924  0.27337029738715607          1.0000   
         C         C         1.0       0.15653568690995942           0.3532826253488779 0.26471426751717764          1.0000   
         H         H         1.0       0.2053608465511473  0.2838960284046754  0.26912144287424977          1.0000   
         H         H         1.0       0.1555188712878229  0.2570709004188914  0.28385048400627405          1.0000   
         H         H         1.0       0.10341661869071996           0.3552210118519415 0.2716317599128588 1.0000   
         H         H         1.0       0.15723380347182192           0.379990608294168  0.25713828853290277          1.0000   
         C         C         1.0       0.05928577791814526           0.3302050550975776 0.315061055133223  1.0000   
         C         C         1.0       0.056833411518162784          0.3062403677934133 0.29289348627087625          1.0000   
         C         C         1.0       0.025945103010409865          0.29976327348834825          0.2815773693000424 1.0000   
         C         C         1.0       0.9974161416769004  0.3156291447560567  0.29125690292364387          1.0000   
         C         C         1.0       0.00043432203983284623        0.3420113283010537 0.31101534538390657          1.0000   
         C         C         1.0       0.03164028891852899           0.3495653009265981 0.3219842712203949 1.0000   
         C         C         1.0       0.08797074323345981           0.282412582918251  0.282621627078251  1.0000   
         C         C         1.0       0.08944914183972356           0.2515939784533351 0.30654269649248805          1.0000   
         C         C         1.0       0.07308249917937928           0.22000482635795868          0.3036542672777015 1.0000   
         C         C         1.0       0.07528091798049694           0.19621379016584287          0.3254167924634435 1.0000   
         C         C         1.0       0.09145896416449563           0.20324914847632705          0.35099915900732515          1.0000   
         C         C         1.0       0.10768812414265591           0.23453527259632023          0.35359541872329675          1.0000   
         C         C         1.0       0.10461702895096539           0.2587662394102639 0.33270990870666173          1.0000   
         C         C         1.0       0.0806602900137598  0.2971651371243269  0.2275683373428882 1.0000   
         C         C         1.0       0.08925626439608887           0.29083139917508916          0.19891657921380218          1.0000   
         C         C         1.0       0.10331835441813005           0.2590037093281507 0.19096264455823314          1.0000   
         C         C         1.0       0.10599338097446905           0.23462680984944306          0.21257629887849477          1.0000   
         C         C         1.0       0.0983253735761817  0.2416376265144256  0.24004838961593072          1.0000   
         C         C         1.0       0.0872276246226162  0.2727383902061875  0.24907980867509752          1.0000   
         C         C         1.0       0.1151887241593259  0.25148640212953044           0.15787782585424381          1.0000   
         C         C         1.0       0.04006914635796921           0.29059970973203125          0.09681097970028821          1.0000   
         C         C         1.0       0.06811318771549169           0.30937824376528533          0.10221719403401144          1.0000   
         C         C         1.0       0.09148892539218001           0.2965385641171788 0.12078454351166541          1.0000   
         C         C         1.0       0.08417401717866832           0.26706062467504516          0.1374369531269962 1.0000   
         C         C         1.0       0.05246575850034785           0.2527314428059152 0.1352316518705885 1.0000   
         C         C         1.0       0.03261146029483619           0.2616105905852499 0.11253675389707092          1.0000   
         C         C         1.0       0.12367086002357032           0.21078490515382836          0.15007385573379145          1.0000   
         C         C         1.0       0.15042204208520518           0.19602146690593641          0.16507352648653628          1.0000   
         C         C         1.0       0.16002589012689045           0.16259853756826098          0.16040976556846992          1.0000   
         C         C         1.0       0.14423994859859285           0.1431660489573268 0.13854460287776413          1.0000   
         C         C         1.0       0.11897086750679847           0.1585938746480463 0.12288003290639186          1.0000   
         C         C         1.0       0.11028347799119301           0.19156318642931774          0.12831493561567597          1.0000   
         C         C         1.0       0.16397575414644813           0.2628704188106246 0.12173651010321943          1.0000   
         C         C         1.0       0.19593683358667804           0.2741232759352318 0.11390232470884919          1.0000   
         C         C         1.0       0.2132997670231294  0.2923689148839035  0.1340609562478064 1.0000   
         C         C         1.0       0.19908238259549382           0.30141318044608034          0.15997333421071894          1.0000   
         C         C         1.0       0.16939219496523064           0.28753590724495376          0.16870432464171448          1.0000   
         C         C         1.0       0.1506483517471246  0.2682162985192869  0.14912434323675428          1.0000   
         H         H         1.0       0.08310818652589949           0.33707733002666673          0.3253280331774415 1.0000   
         H         H         1.0       0.02350531599795813           0.2812613192954256 0.2641760905411189 1.0000   
         H         H         1.0       0.9736294964444222  0.3097944733441394  0.280945701655978  1.0000   
         H         H         1.0       0.0345321300032746  0.3716465940374753  0.33820703358808585          1.0000   
         H         H         1.0       0.05871803657614393           0.21555983010716137          0.2850409572823107 1.0000   
         H         H         1.0       0.06522115676264167           0.1708269691833381 0.32100406052447056          1.0000   
         H         H         1.0       0.1242271622731896  0.24388403239454895           0.3700810443183166 1.0000   
         H         H         1.0       0.11478270998015377           0.2850174957832546 0.33609179490417423          1.0000   
         H         H         1.0       0.07180036773885352           0.32287490271992586          0.23536383551567944          1.0000   
         H         H         1.0       0.0883003954954098  0.31367359995664873           0.18414090677407566          1.0000   
         H         H         1.0       0.11320982982217406           0.20695149422561104          0.20908076100318376          1.0000   
         H         H         1.0       0.1055031246776735  0.22276265408993684           0.25489741391996884          1.0000   
         H         H         1.0       0.07352110245206278           0.3318854042913757 0.08915236811362165          1.0000   
         H         H         1.0       0.1145863526659967  0.31253231190173375           0.12453424153466422          1.0000   
         H         H         1.0       0.04393276976392935           0.2310222907282373 0.14782778753929274          1.0000   
         H         H         1.0       0.009905757241764901          0.24809931230872367          0.10713341263049651          1.0000   
         H         H         1.0       0.16223734616167423           0.21014192742437188          0.18208957832697942          1.0000   
         H         H         1.0       0.1813555855144611  0.15030575069627142           0.17158989680363826          1.0000   
         H         H         1.0       0.10892863064928897           0.14341100320635197          0.10449850153917434          1.0000   
         H         H         1.0       0.09055559880930038           0.20170005774448974          0.11543400710722662          1.0000   
         H         H         1.0       0.15141252161004867           0.24658750296340842          0.10776407386233243          1.0000   
         H         H         1.0       0.20664270018447461           0.2666575597970881 0.09271814787595885          1.0000   
         H         H         1.0       0.21084124064768742           0.3214807707262573 0.17225737075085437          1.0000   
         H         H         1.0       0.15979915595088515           0.2959649002286107 0.18906390403924345          1.0000   
         C         C         1.0       0.029790499795777192          0.3670985559015709 0.9048270007221185 1.0000   
         C         C         1.0       0.025821220757665797          0.3536687349507129 0.9322574998673016 1.0000   
         C         C         1.0       0.05048155627598372           0.33247206492968856          0.9441573333094089 1.0000   
         C         C         1.0       0.0776020630155807  0.322325607430227   0.9267127236927427 1.0000   
         C         C         1.0       0.08242223502565797           0.3378471449274412 0.9009141617799062 1.0000   
         C         C         1.0       0.058614063769812264          0.35958833710761945          0.8901480961880884 1.0000   
         H         H         1.0       0.0029056844435724205         0.35792296276747654          0.9465945927503974 1.0000   
         H         H         1.0       0.049619541515537824          0.32188530939761606          0.9647826770389978 1.0000   
         H         H         1.0       0.10319196514905353           0.33008125339544053          0.8876080794472025 1.0000   
         H         H         1.0       0.06058383907035247           0.36742479261504085          0.8669564367301551 1.0000   
         C         C         1.0       0.10131141188933922           0.26070690403281027          0.8864648062077373 1.0000   
         C         C         1.0       0.1180473635232026  0.26802029494595364           0.9118093964405792 1.0000   
         C         C         1.0       0.14462094072146353           0.24561874618267204          0.9184028347730923 1.0000   
         C         C         1.0       0.1559110207957644  0.22178105764947012           0.8999150976605228 1.0000   
         C         C         1.0       0.13975083496070478           0.21671605559244314          0.8746755505119704 1.0000   
         C         C         1.0       0.11363338789619332           0.23779104469140766          0.866831470344114  1.0000   
         C         C         1.0       0.1004820308951741  0.29279698204726595           0.9364638810335325 1.0000   
         C         C         1.0       0.07945690911549264           0.2637484954350164 0.9533483857971917 1.0000   
         C         C         1.0       0.09125464084783808           0.2459448628938204 0.9770091170908829 1.0000   
         C         C         1.0       0.07397582821088822           0.21902750899142887          0.9892787364849522 1.0000   
         C         C         1.0       0.04404245992521827           0.20746752833964843          0.9786727312173744 1.0000   
         C         C         1.0       0.03166717494368876           0.22383816007104523          0.954149627931265  1.0000   
         C         C         1.0       0.05011331734902513           0.24867722204786208          0.9405865820924745 1.0000   
         C         C         1.0       0.1561059504807753  0.3258632342345548  0.9367427201749999 1.0000   
         C         C         1.0       0.1829753737334868  0.3410679378678107  0.94953709152689   1.0000   
         C         C         1.0       0.18808091021580278           0.3381479801073669 0.9786455521178176 1.0000   
         C         C         1.0       0.1601653478869185  0.32758548734277415           0.9944707224608142 1.0000   
         C         C         1.0       0.13204076477364105           0.3161170737290631 0.9825668822422092 1.0000   
         C         C         1.0       0.12860935780562702           0.3125839346347752 0.9531079111270606 1.0000   
         C         C         1.0       0.22648329676397758           0.3363665376012774 0.9901391050680896 1.0000   
         C         C         1.0       0.23811380234541005           0.23310649237194328          0.9542528846253319 1.0000   
         C         C         1.0       0.25506612903585674           0.260082217948154  0.941928030438886  1.0000   
         C         C         1.0       0.2521946793314011  0.2933467615203848  0.9530768006424556 1.0000   
         C         C         1.0       0.23350397798098071           0.2985779224419883 0.9783588381938749 1.0000   
         C         C         1.0       0.21949788406370174           0.26907034043927414          0.9921246610947232 1.0000   
         C         C         1.0       0.22294920689663356           0.2374394486806645 0.9809581399077606 1.0000   
         C         C         1.0       0.23237735141046084           0.33723571131360414          0.02361596970948865          1.0000   
         C         C         1.0       0.21537962131393337           0.360108731203547  0.04224701382932139          1.0000   
         C         C         1.0       0.22052033899233547           0.3600176438832381 0.07144875145559593          1.0000   
         C         C         1.0       0.24619313834440637           0.34186715339860346          0.08254500059395475          1.0000   
         C         C         1.0       0.26614311816041936           0.32263983358917847          0.063457583693866  1.0000   
         C         C         1.0       0.26004098384601626           0.320634190427018  0.03569328406631489          1.0000   
         C         C         1.0       0.28635752060763514           0.35948129031824944          0.9780836695314199 1.0000   
         C         C         1.0       0.30792091635057883           0.383700607193217  0.9679690350495969 1.0000   
         C         C         1.0       0.2961230434075546  0.41496906180329657           0.9592468319730525 1.0000   
         C         C         1.0       0.26205674687845015           0.42056051437151437          0.9588129428306382 1.0000   
         C         C         1.0       0.24015826186748612           0.3966839129446444 0.9700982664267037 1.0000   
         C         C         1.0       0.251586261523437   0.36607274620087404           0.9794978882067926 1.0000   
         H         H         1.0       0.07907381269966761           0.27513474590627607          0.8819650732029439 1.0000   
         H         H         1.0       0.1577878414336906  0.24706773785388458           0.9380773364089706 1.0000   
         H         H         1.0       0.1747597044015076  0.20443093428033127           0.9046192412952628 1.0000   
         H         H         1.0       0.10265652209663044           0.23366494763053083          0.8474225617975183 1.0000   
         H         H         1.0       0.11560186228139269           0.25256361402080807          0.985304627008592  1.0000   
         H         H         1.0       0.08434197493122841           0.20605307983922083          0.009413849959018838         1.0000   
         H         H         1.0       0.011360851638317238          0.21214620186682465          0.943408342326369  1.0000   
         H         H         1.0       0.04109269272134286           0.2627645310274945 0.9218619636550521 1.0000   
         H         H         1.0       0.15634259078071772           0.3212335180891262 0.9133017028325756 1.0000   
         H         H         1.0       0.20496894872253166           0.34703026211407884          0.9354369858202868 1.0000   
         H         H         1.0       0.1611506645000554  0.32564343482897057           0.01758591801519538          1.0000   
         H         H         1.0       0.10974949130960125           0.31032598233990355          0.9964666337233993 1.0000   
         H         H         1.0       0.26604666200061455           0.2580173293702967 0.9199816463310815 1.0000   
         H         H         1.0       0.2607092844140144  0.3151285405349894  0.9404907885912828 1.0000   
         H         H         1.0       0.20472667902505914           0.27389798879197397          0.010663292726211138         1.0000   
         H         H         1.0       0.21120426234773287           0.21757219305242814          0.9915746179781764 1.0000   
         H         H         1.0       0.19827671345997636           0.37597987190788656          0.032067265007050594         1.0000   
         H         H         1.0       0.20202437190385106           0.37296369589981115          0.08524381252772395          1.0000   
         H         H         1.0       0.286293099970121   0.30760340538553066           0.07237977034575982          1.0000   
         H         H         1.0       0.2777661242211514  0.30312945591543505           0.025932682227861825         1.0000   
         H         H         1.0       0.30000178485047574           0.3367133884033834 0.987647346532228  1.0000   
         H         H         1.0       0.3346236019762821  0.3794696035381308  0.9666663460702364 1.0000   
         H         H         1.0       0.2497357608018968  0.44531893200068345           0.9534263233751971 1.0000   
         H         H         1.0       0.2135048797058481  0.40314219244620964           0.9728383867982777 1.0000   
         C         C         1.0       0.24766166201428833           0.305922119149548  0.12808522210146397          1.0000   
         C         C         1.0       0.2512059145592359  0.3428298365971588  0.11468205743670358          1.0000   
         H         H         1.0       0.26305332558173294           0.2861804181637047 0.11651274664188208          1.0000   
         H         H         1.0       0.2618357103714546  0.30679347377831445           0.150112595559111  1.0000   
         H         H         1.0       0.23592749842658275           0.36430708166938724          0.12482603357837241          1.0000   
         H         H         1.0       0.27735562941140973           0.3492614653723615 0.11728617813755791          1.0000   
         C         C         1.0       0.2656086143151874  0.17529088071716417           0.9495159339256184 1.0000   
         C         C         1.0       0.2378974596575699  0.20020256049869956           0.9391919946186048 1.0000   
         H         H         1.0       0.2661132271745092  0.1702464619191607  0.9718542297437668 1.0000   
         H         H         1.0       0.29101348072381505           0.18711436270778264          0.9465532030290686 1.0000   
         H         H         1.0       0.2120202030286473  0.1881817959569579  0.9393477716486942 1.0000   
         H         H         1.0       0.24244939797043266           0.20142549252578815          0.9155859819699327 1.0000   
         C         C         1.0       0.18643368399893298           0.10664280253402818          0.10900050486723178          1.0000   
         C         C         1.0       0.1577390843025146  0.10731671360054003           0.13273481381312216          1.0000   
         H         H         1.0       0.2045950666365847  0.1265374457974686  0.11436929390604642          1.0000   
         H         H         1.0       0.17613448754256958           0.11301292695239575          0.08809629748973828          1.0000   
         H         H         1.0       0.16858711988916392           0.09708929301064846          0.15395874694934522          1.0000   
         H         H         1.0       0.1350987779061401  0.09044526500554777           0.1289080097805291 1.0000   
         C         C         1.0       0.37429788568528444           0.9280156368661777 0.06361000046685193          1.0000   
         C         C         1.0       0.36308569140768526           0.8941518948935965 0.04997927752176179          1.0000   
         H         H         1.0       0.3832751285432361  0.9461266918828611  0.047311304791142345         1.0000   
         H         H         1.0       0.3974671733138618  0.9216363138479292  0.0764533982418466 1.0000   
         H         H         1.0       0.3563279466047441  0.8741856714448605  0.06568145703019934          1.0000   
         H         H         1.0       0.38432106262000043           0.883730549199237  0.038813283515717556         1.0000   
         C         C         1.0       0.12467168839770415           0.020566202475080786         0.9861358365972813 1.0000   
         C         C         1.0       0.1387561661762234  0.0007702825431363802        0.013005905424722464         1.0000   
         H         H         1.0       0.14424553543811858           0.03299281555864386          0.9728998817155015 1.0000   
         H         H         1.0       0.11003097242365675           0.041593525626286265         0.9926809228166654 1.0000   
         H         H         1.0       0.14959757882078126           0.019988596081278676         0.027970175364073313         1.0000   
         H         H         1.0       0.11678697939671885           0.9892676189200502 0.02228553697510982          1.0000   
         C         C         1.0       0.13146426337902625           0.8877327525417607 0.061886485629072965         1.0000   
         C         C         1.0       0.162613645356436   0.8678001517214514  0.07540379993026665          1.0000   
         H         H         1.0       0.11777846381521405           0.8682892812874918 0.0477356182133899 1.0000   
         H         H         1.0       0.14118828770204989           0.9088519276046518 0.04678709400423172          1.0000   
         H         H         1.0       0.17341750497101122           0.8499680813131887 0.05850543798091022          1.0000   
         H         H         1.0       0.1543322299117448  0.8494890095767129  0.09175483052762373          1.0000   
         C         C         1.0       0.915489193774217   0.8478003624345432  0.13510235157151837          1.0000   
         C         C         1.0       0.9117845205619932  0.8168043130728954  0.11403367160961858          1.0000   
         H         H         1.0       0.8949191179832767  0.8660097184511854  0.13062547092756957          1.0000   
         H         H         1.0       0.9125527392040335  0.8377180621362965  0.15717987393930832          1.0000   
         H         H         1.0       0.8869820715264813  0.8040049220152201  0.11515475701066039          1.0000   
         H         H         1.0       0.9302259126623588  0.7955710686518507  0.11966226956905864          1.0000   
         C         C         1.0       0.8823162831837922  0.02105708842437437           0.9586596452097238 1.0000   
         C         C         1.0       0.9175618253084038  0.004997422916800831         0.9559056910739797 1.0000   
         H         H         1.0       0.8758875574732121  0.025012547592531353         0.9814785163027963 1.0000   
         H         H         1.0       0.861925288681104   0.003350846621476   0.9509569439579687 1.0000   
         H         H         1.0       0.9242381886772162  0.001441849303534859         0.9330039462255136 1.0000   
         H         H         1.0       0.9382925448383139  0.021695906729167103         0.9651868055031286 1.0000   
         C         C         1.0       0.020321392381765335          0.18440402894296087          0.9973025731191901 1.0000   
         C         C         1.0       0.0031256499966079154         0.20338370632913025          0.022452564206917547         1.0000   
         H         H         1.0       0.0008207086771128136         0.1681726268989091 0.9843248950292645 1.0000   
         H         H         1.0       0.03681847404061389           0.16361753578034272          0.0070657793100654676        1.0000   
         H         H         1.0       0.9948352906094184  0.18346387444032108           0.03622560704190625          1.0000   
         H         H         1.0       0.022875986530436876          0.21881622421001082          0.03343742096100755          1.0000   
         C         C         1.0       0.9607089453271488  0.0875261785099557  0.1000518527056146 1.0000   
         C         C         1.0       0.9915161828860628  0.08324578119347947           0.11801314835671774          1.0000   
         H         H         1.0       0.9455531529503747  0.06577475329534277           0.10533968367110712          1.0000   
         H         H         1.0       0.9715916499818339  0.08380173486965536           0.07840455175770339          1.0000   
         H         H         1.0       0.9862512374834538  0.09645016387448835           0.13849608816649064          1.0000   
         H         H         1.0       0.013050634709024456          0.09752923515454848          0.10999932874531537          1.0000   
         C         C         1.0       0.019523900215771883          0.3049527675204042 0.07144977242735538          1.0000   
         C         C         1.0       0.9889578254626931  0.32819795403594526           0.08049147003494903          1.0000   
         H         H         1.0       0.03577707927136253           0.3202246941123872 0.05715388670067252          1.0000   
         H         H         1.0       0.00970578297353053           0.28330704513028016          0.058072710801528656         1.0000   
         H         H         1.0       0.9937102486080881  0.34848120754693274           0.09723900971413384          1.0000   
         H         H         1.0       0.9831216317150959  0.3445120126477032  0.061269417227635604         1.0000   
         C         C         1.0       0.7706384022602054  0.26337096442424274           0.06299686599267224          1.0000   
         C         C         1.0       0.7763687542524041  0.3005650638308346  0.04895482124018876          1.0000   
         H         H         1.0       0.7642802031063654  0.24399320303122612           0.04684171666555144          1.0000   
         H         H         1.0       0.7474211904520386  0.261643554558923   0.07564748465855534          1.0000   
         H         H         1.0       0.7807241628581069  0.32086564249292016           0.0653990026103261 1.0000   
         H         H         1.0       0.7522696310381435  0.30892331338469264           0.03778900368635996          1.0000   
         C         C         1.0       0.34037884634378834           0.022927486645523576         0.35828305285229034          1.0000   
         C         C         1.0       0.34867770776932705           0.02503284868446198          0.32640325510721335          1.0000   
         H         H         1.0       0.36435909115561405           0.029907218782454722         0.36782011842996526          1.0000   
         H         H         1.0       0.3359220564827993  0.9952836199948133  0.3658671449022174 1.0000   
         H         H         1.0       0.3541506856619812  0.05178581250793135           0.31901395349609757          1.0000   
         H         H         1.0       0.37268031399381657           0.011331849469703224         0.32058784155073855          1.0000   
         C         C         1.0       0.09244205217489272           0.1750028395309137 0.3727385835998873 1.0000   
         C         C         1.0       0.11100750859594118           0.14114937973670508          0.3637662419973256 1.0000   
         H         H         1.0       0.10355130001031357           0.1882578995672322 0.3913144797711797 1.0000   
         H         H         1.0       0.06628117244859857           0.1693190013937785 0.3757197240493806 1.0000   
         H         H         1.0       0.09750189994086882           0.11895962486057059          0.3726659114323306 1.0000   
         H         H         1.0       0.11200965223662851           0.13393333743746721          0.3404703053179437 1.0000   
         C         C         1.0       0.33979443977534507           0.28177885036759376          0.5648803862997073 1.0000   
         C         C         1.0       0.30817750562886037           0.2730112318917274 0.5474048230229648 1.0000   
         H         H         1.0       0.3481328550028435  0.30795046351949307           0.5591557804354819 1.0000   
         H         H         1.0       0.3620021073762305  0.26520694757957586           0.5600672363418999 1.0000   
         H         H         1.0       0.2872297641701814  0.2897604276565715  0.5550484911576486 1.0000   
         H         H         1.0       0.3127836769590192  0.276131515152435   0.5245814324300743 1.0000   
         C         C         1.0       0.34774051818622775           0.023245897384920333         0.769601487187577  1.0000   
         C         C         1.0       0.3367679255537066  0.9926190365593018  0.7877528784260636 1.0000   
         H         H         1.0       0.3700443741440809  0.03425090073368553           0.7810227536207496 1.0000   
         H         H         1.0       0.36108829968159556           0.012299283803387516         0.750498028662833  1.0000   
         H         H         1.0       0.3589662841315346  0.976741347964167   0.791933545585271  1.0000   
         H         H         1.0       0.32170229616900486           0.9752865220048613 0.7723048447820836 1.0000   
         C         C         1.0       0.1560309505670709  0.1925939875554599  0.853648098812041  1.0000   
         C         C         1.0       0.1927179743524858  0.2057155265023928  0.8441589141015445 1.0000   
         H         H         1.0       0.15540110459521866           0.16658708190066657          0.8620102324717335 1.0000   
         H         H         1.0       0.13944076658238733           0.18684648804107573          0.8350919086778354 1.0000   
         H         H         1.0       0.2106423301437501  0.20784004562765107           0.8618004047796628 1.0000   
         H         H         1.0       0.1908094107446629  0.2326979254390507  0.8385123147350667 1.0000   
         C         C         1.0       0.008674434670229436          0.04896395236734907          0.3377281858126083 1.0000   
         C         C         1.0       0.03168052561071821           0.023486012899726294         0.35384998513466565          1.0000   
         H         H         1.0       0.0029412467766611883         0.038749851676811886         0.3148767826339764 1.0000   
         H         H         1.0       0.02216884353941473           0.07369714631022428          0.33660595750843253          1.0000   
         H         H         1.0       0.019193555542076135          0.013830497061938507         0.3732546820860701 1.0000   
         H         H         1.0       0.05488049615171442           0.036089160664512177         0.3627292157024803 1.0000   
         C         C         1.0       0.7944676599578508  0.1621936385512932  0.3535287277425401 1.0000   
         C         C         1.0       0.7925251588937404  0.1618312710458374  0.3199606885089865 1.0000   
         H         H         1.0       0.7691889873267752  0.16045496266353587           0.36313090684003674          1.0000   
         H         H         1.0       0.8003922272197621  0.1871633624712985  0.3613418077823154 1.0000   
         H         H         1.0       0.7684094749995247  0.17413969540812557           0.3114593885194932 1.0000   
         H         H         1.0       0.7884391591913708  0.13272340593763365           0.3152208811061701 1.0000   
         C         C         1.0       0.8324769530890607  0.912349983353006   0.5699706297752279 1.0000   
         C         C         1.0       0.8682665533824206  0.9228866406564371  0.5592081502320914 1.0000   
         H         H         1.0       0.8249927993973932  0.8859282438852182  0.5635068289305255 1.0000   
         H         H         1.0       0.8129925288408496  0.9292636635974659  0.560685063053336  1.0000   
         H         H         1.0       0.8859301837170197  0.9134028965093883  0.5750770689310566 1.0000   
         H         H         1.0       0.8740422770625605  0.9080659610630687  0.5395944294855209 1.0000   
         C         C         1.0       0.9734047430548136  0.9731654110955777  0.8388624858020958 1.0000   
         C         C         1.0       0.9884426727091962  0.007638800168424442         0.828405818429239  1.0000   
         H         H         1.0       0.973754371050878   0.9545802794887596  0.8206942682895021 1.0000   
         H         H         1.0       0.9462854203736331  0.9758331407059236  0.8443196307867993 1.0000   
         H         H         1.0       0.014726650135816088          0.006130756453156305         0.8192061330638984 1.0000   
         H         H         1.0       0.9918236183900642  0.026962323509877484         0.8468791179684217 1.0000   
         C         C         1.0       0.8148608236318235  0.19505676352218626           0.7985563795320033 1.0000   
         C         C         1.0       0.7994334719572695  0.16698550611330498           0.7795165948198295 1.0000   
         H         H         1.0       0.7937075475645899  0.20967054893497683           0.8065134891967933 1.0000   
         H         H         1.0       0.8281027944828291  0.21555380707138516           0.7840209882565631 1.0000   
         H         H         1.0       0.7805085264959477  0.17860997819503388           0.7639145535089902 1.0000   
         H         H         1.0       0.7813452911087965  0.15385915470684175           0.7953957922681126 1.0000   
         C         C         1.0       0.1684278606789991  0.8305986802986366  0.3575294696997243 1.0000   
         C         C         1.0       0.16870513932029377           0.8294322001589541 0.3252095755998007 1.0000   
         H         H         1.0       0.18039716360530464           0.8067613030122851 0.3648114376776513 1.0000   
         H         H         1.0       0.14314620958407967           0.8295682004083118 0.36633722853369444          1.0000   
         H         H         1.0       0.16951849179469014           0.8019333868883729 0.31788253699116914          1.0000   
         H         H         1.0       0.19352856452905365           0.836664507950745  0.3160044616868703 1.0000   
         C         C         1.0       0.17103862751661042           0.05227045427766197          0.33883720610735923          1.0000   
         C         C         1.0       0.14666260364811    0.028901183559322252         0.32090060029502676          1.0000   
         H         H         1.0       0.15146157532460022           0.07177080211960751          0.3481857852505983 1.0000   
         H         H         1.0       0.18824783817616256           0.06836883749180211          0.32469723323756833          1.0000   
         H         H         1.0       0.12358879003321242           0.04142151497439506          0.3125493298382006 1.0000   
         H         H         1.0       0.13449396954188125           0.011159597020083734         0.33573488850662003          1.0000   
         C         C         1.0       0.07207416845855943           0.04173323165241327          0.5114644427682895 1.0000   
         C         C         1.0       0.05889017957277564           0.061213181915574566         0.5388428884837011 1.0000   
         H         H         1.0       0.07867227626965044           0.06526538250719538          0.49663598603674275          1.0000   
         H         H         1.0       0.05019925178119911           0.028940022649122543         0.5004351142184191 1.0000   
         H         H         1.0       0.06600701599595127           0.046055978320157065         0.5580180049593845 1.0000   
         H         H         1.0       0.07332087251999893           0.08581245418438743          0.5412944981667503 1.0000   
         C         C         1.0       0.29259775982930025           0.04556314372081749          0.6226196054105887 1.0000   
         C         C         1.0       0.297112336697131   0.01011575653929464           0.6091186398041759 1.0000   
         H         H         1.0       0.2769178713187749  0.04573960321633951           0.6428294594425823 1.0000   
         H         H         1.0       0.31888509581360497           0.054252176729213474         0.6296119178817264 1.0000   
         H         H         1.0       0.2979145918210068  0.9937559192449734  0.6283966138360657 1.0000   
         H         H         1.0       0.32167438762629336           0.006098708480416049         0.5983007687658893 1.0000   
         C         C         1.0       0.9975367992083434  0.9249021362159544  0.7530415346592304 1.0000   
         C         C         1.0       0.9824272334609597  0.8945812623246964  0.735996873467965  1.0000   
         H         H         1.0       0.9833945010245358  0.9307170886834092  0.7725305587879367 1.0000   
         H         H         1.0       0.9952776619921223  0.9477377032057005  0.739374313036095  1.0000   
         H         H         1.0       0.9979160384884238  0.886901820994079   0.7160864471794554 1.0000   
         H         H         1.0       0.9822469921478033  0.873241648602853   0.7509009815827744 1.0000   
         C         C         1.0       0.16475828181708851           0.04067728462230491          0.6523311345665802 1.0000   
         C         C         1.0       0.1484692833965349  0.06265351148845522           0.6774260189731213 1.0000   
         H         H         1.0       0.1821275275327177  0.05630056138016311           0.6387859831748537 1.0000   
         H         H         1.0       0.14676663742318297           0.030006713532320536         0.6358860548405683 1.0000   
         H         H         1.0       0.13124433990111856           0.04655071747216687          0.6897443448910123 1.0000   
         H         H         1.0       0.1311142331103933  0.08066011135568688           0.6681134741370447 1.0000   
         C         C         1.0       0.21996564462253015           0.8145687600822009 0.610452520239493  1.0000   
         C         C         1.0       0.18586888313559027           0.8271317631691812 0.6003080220422968 1.0000   
         H         H         1.0       0.23947058309039404           0.8093230090181769 0.594176834735082  1.0000   
         H         H         1.0       0.21550634503954003           0.7866436964396255 0.6186328370303171 1.0000   
         H         H         1.0       0.17037949554518672           0.8289079201865318 0.6200673541959268 1.0000   
         H         H         1.0       0.17349662404974778           0.8055955918096317 0.589040038714237  1.0000   
         C         C         1.0       0.19271331822910218           0.8315019994992227 0.8794375978160476 1.0000   
         C         C         1.0       0.16394784278610902           0.8149354348063497 0.8981735425758737 1.0000   
         H         H         1.0       0.20977820497266852           0.8108596322415396 0.8700799799612532 1.0000   
         H         H         1.0       0.2090023484811023  0.8458819475365754  0.893149121312742  1.0000   
         H         H         1.0       0.17469884074651315           0.8037288413614208 0.9152897114826568 1.0000   
         H         H         1.0       0.15270765567583605           0.7945684747278585 0.8856235914466564 1.0000   
         C         C         1.0       0.11596679545709898           0.07740396979064884          0.8605701824847269 1.0000   
         C         C         1.0       0.10422191421794565           0.06509237750146205          0.830388758443296  1.0000   
         H         H         1.0       0.1109575610712443  0.1065507800368547  0.8622327473488335 1.0000   
         H         H         1.0       0.0984390293950475  0.06641221026340832           0.8769081047776306 1.0000   
         H         H         1.0       0.11602071436973033           0.08323912068741927          0.8158893599318686 1.0000   
         H         H         1.0       0.0770690629675473  0.07066332286379128           0.829602593788289  1.0000   
         C         C         1.0       0.9938053827646962  0.166885889713847   0.35520497832891257          1.0000   
         C         C         1.0       0.9832224153491252  0.15160450562628144           0.3253001884076589 1.0000   
         H         H         1.0       0.013212101265123621          0.1855333941394714 0.3509951134759427 1.0000   
         H         H         1.0       0.005917968890172043          0.14641173053198886          0.36676901919140836          1.0000   
         H         H         1.0       0.9607944632752116  0.1347777163782094  0.3286557453880642 1.0000   
         H         H         1.0       0.002673909931039109          0.1335637650651988 0.3169621477915229 1.0000   
         C         C         1.0       0.9593680256864784  0.3710911561753323  0.34909837558070883          1.0000   
         C         C         1.0       0.9677763565500495  0.36270978682379434           0.31631861503808634          1.0000   
         H         H         1.0       0.9378726283666621  0.389478360246184   0.3492377801748348 1.0000   
         H         H         1.0       0.9808237988126532  0.38379019374251205           0.3587408161234529 1.0000   
         H         H         1.0       0.9458499924691177  0.3452203799401979  0.30981822239057627          1.0000   
         H         H         1.0       0.966919224929891   0.38578915429050836           0.3014271871460779 1.0000   
         C         C         1.0       0.062119603340679966          0.18432882998099878          0.5409931778946693 1.0000   
         C         C         1.0       0.08621960221929152           0.17886691455242318          0.5667877686443101 1.0000   
         H         H         1.0       0.05521113640506359           0.16038649377393252          0.5307923305716343 1.0000   
         H         H         1.0       0.07714936652294939           0.19969762766598367          0.5256801177921807 1.0000   
         H         H         1.0       0.08580085238092998           0.2050948239642306 0.5782763360006975 1.0000   
         H         H         1.0       0.07720489255623263           0.16033567404280147          0.5829193558013838 1.0000   
         C         C         1.0       0.8371889918762446  0.1564651296519964  0.6223792333333197 1.0000   
         C         C         1.0       0.8262596553304442  0.1916813510661818  0.612125783182832  1.0000   
         H         H         1.0       0.8529903359035508  0.16125403154913404           0.6415643125104036 1.0000   
         H         H         1.0       0.8154418392313544  0.14265930808866928           0.6293583102768092 1.0000   
         H         H         1.0       0.814063795020745   0.20649882510215908           0.6293707635458209 1.0000   
         H         H         1.0       0.8048623554093637  0.18978181957089754           0.5976506414084292 1.0000   
         C         C         1.0       0.14650968009899054           0.2611759375266054 0.7348303567852024 1.0000   
         C         C         1.0       0.16327410415586227           0.2961340405307915 0.7247626559675001 1.0000   
         H         H         1.0       0.16388605021124691           0.2478079979453407 0.7479107578319607 1.0000   
         H         H         1.0       0.14412890570005935           0.24119280955076058          0.7172509700532214 1.0000   
         H         H         1.0       0.15080944936514237           0.31054204719510137          0.7079002818822769 1.0000   
         H         H         1.0       0.166394369353667   0.31593023887528265           0.7435916993159749 1.0000   
         C         C         1.0       0.0018707060042568724         0.14831551192411524          0.6802325979451955 1.0000   
         C         C         1.0       0.9825891513558953  0.16533474595043388           0.6548042805902367 1.0000   
         H         H         1.0       0.0245803116567207  0.13395516128197052           0.6707913865740566 1.0000   
         H         H         1.0       0.014821852689131498          0.16963232200393544          0.6927284008451086 1.0000   
         H         H         1.0       0.9684480129008972  0.14177244318776008           0.6449735984097364 1.0000   
         H         H         1.0       0.0014787352256100394         0.1741524278463061 0.6390704895368173 1.0000   
         C         C         1.0       0.8895176073184325  0.3962155381626081  0.6353784534099968 1.0000   
         C         C         1.0       0.923306752825391   0.39576692796465934           0.6184244147495253 1.0000   
         H         H         1.0       0.8690827795992964  0.39856329293622517           0.6190515040596616 1.0000   
         H         H         1.0       0.8851200376084177  0.42181064558845205           0.6458274145712389 1.0000   
         H         H         1.0       0.9428381865327415  0.40242446357960077           0.6352691500870175 1.0000   
         H         H         1.0       0.9219953499525049  0.42040403006161964           0.606082131404325  1.0000   
         C         C         1.0       0.9724625175248844  0.3708918191513668  0.8775279158918616 1.0000   
         C         C         1.0       0.0029762794504812895         0.39077409527165474          0.8900280583687555 1.0000   
         H         H         1.0       0.9561088807154865  0.38927764085653777           0.864743270804654  1.0000   
         H         H         1.0       0.9561450687360793  0.35975509405982514           0.8945218683471399 1.0000   
         H         H         1.0       0.9926249502063977  0.4115108531333398  0.9038041042429537 1.0000   
         H         H         1.0       0.015282000132795126          0.4065961736933841 0.8724962731866142 1.0000   
         C         C         1.0       0.03952451517443256           0.1223797472584946 0.8694232508060766 1.0000   
         C         C         1.0       0.04482568766867834           0.1301885364648057 0.8361434834640173 1.0000   
         H         H         1.0       0.057211666166907316          0.13860988759313855          0.8834628983682593 1.0000   
         H         H         1.0       0.04498914619030092           0.09364912102677077          0.8743456358451689 1.0000   
         H         H         1.0       0.03444893604172217           0.10961977904223741          0.822828216247165  1.0000   
         H         H         1.0       0.07374072187923586           0.12819398927529696          0.8314323351396873 1.0000   
         C         C         1.0       0.423457234331507   0.34674273371203707           0.7599432678131245 1.0000   
         C         C         1.0       0.42056462643843334           0.3422481899255624 0.7273736699876471 1.0000   
         H         H         1.0       0.42155232780029134           0.3194472232287349 0.7679038003574034 1.0000   
         H         H         1.0       0.39886037274958197           0.36032757043098734          0.7687335026261501 1.0000   
         H         H         1.0       0.4215166153231504  0.3667156377586098  0.7175868336243171 1.0000   
         H         H         1.0       0.4437033873799393  0.32839243524474804           0.7212539494525639 1.0000   
         C         C         1.0       0.3443393628157445  0.2500631228866544  0.4538238606944712 1.0000   
         C         C         1.0       0.3412262537862087  0.2419510235083205  0.4222691458334623 1.0000   
         H         H         1.0       0.35174742705469625           0.22530524558564277          0.4656107396992617 1.0000   
         H         H         1.0       0.32008853315023855           0.25658361693702875          0.4650239984560207 1.0000   
         H         H         1.0       0.3670488899537771  0.23614694796974084           0.41321663019809085          1.0000   
         H         H         1.0       0.332249874075282   0.2647441058150103  0.4103577113071727 1.0000   
         C         C         1.0       0.4188532586286088  0.3226745553341341  0.6149447094823091 1.0000   
         C         C         1.0       0.418666813486777   0.3525865914170913  0.6370131937799652 1.0000   
         H         H         1.0       0.3949498392223218  0.3075189664181535  0.6174360455247281 1.0000   
         H         H         1.0       0.43677977792938066           0.3024860245569973 0.6211428409487264 1.0000   
         H         H         1.0       0.3988913972557433  0.37302750035404497           0.6376213585324995 1.0000   
         H         H         1.0       0.41167616525779915           0.3418727975166373 0.6591551977810165 1.0000   
         C         C         1.0       0.4092947315940738  0.8892174315146274  0.7052191340002512 1.0000   
         C         C         1.0       0.38571146641059356           0.9158832436940524 0.7211116096991089 1.0000   
         H         H         1.0       0.4356897231819497  0.8994148874496725  0.7030028353760087 1.0000   
         H         H         1.0       0.40015323369147654           0.8873259786602962 0.6832210508985436 1.0000   
         H         H         1.0       0.39126351707402907           0.9193047639524072 0.7445116555786626 1.0000   
         H         H         1.0       0.39617501931483057           0.9397682685665899 0.7144613376560129 1.0000   
         C         C         1.0       0.4986248561705729  0.592099829472795   0.594269193474528  1.0000   
         C         C         1.0       0.5153063834440098  0.5820187222204884  0.6221976320955553 1.0000   
         H         H         1.0       0.5180174050185807  0.5986000457859467  0.5778332462432317 1.0000   
         H         H         1.0       0.48336077249696274           0.5706644226196526 0.5842201809335554 1.0000   
         H         H         1.0       0.49940721188978204           0.5882008510156218 0.6404625342178353 1.0000   
         H         H         1.0       0.5400986094066714  0.595185426201835   0.6238160274663956 1.0000   
         C         C         1.0       0.4073129321359159  0.9106798337043339  0.4248050233372671 1.0000   
         C         C         1.0       0.3850280146380576  0.9221949096877222  0.39739376688704514          1.0000   
         H         H         1.0       0.4018423073604515  0.9286783249159725  0.44366682382849654          1.0000   
         H         H         1.0       0.4341158521034247  0.9133391916812833  0.4187443535933746 1.0000   
         H         H         1.0       0.3859969152956372  0.9041947075561718  0.3782169767822865 1.0000   
         H         H         1.0       0.39527553746746963           0.9471616178428733 0.38907104594296066          1.0000   
         C         C         1.0       0.36831965257765903           0.5145831988121364 0.454514621641511  1.0000   
         C         C         1.0       0.40712555795118366           0.5044560099980601 0.45462248884833756          1.0000   
         H         H         1.0       0.35424900666253323           0.492447926745267  0.443520308122392  1.0000   
         H         H         1.0       0.35792180155598563           0.5183334634039428 0.477474419915495  1.0000   
         H         H         1.0       0.42295007069581747           0.5240596132884912 0.4646227852503591 1.0000   
         H         H         1.0       0.4185773097663563  0.5045896256100979  0.43311373328088976          1.0000   
         C         C         1.0       0.2855473338843696  0.7483670397792084  0.5694237953798221 1.0000   
         C         C         1.0       0.28736994664913185           0.7852778483335555 0.5549616963462001 1.0000   
         H         H         1.0       0.2784496271989213  0.7305881150729079  0.5515558926064377 1.0000   
         H         H         1.0       0.2652772369289789  0.7476333612871024  0.5856584499369373 1.0000   
         H         H         1.0       0.2928024240562593  0.8046160542085505  0.5708958368891482 1.0000   
         H         H         1.0       0.2622321226250478  0.7920257901017853  0.5475029936788885 1.0000   
         C         C         1.0       0.7206531410696414  0.864886857174658   0.7694132309643423 1.0000   
         C         C         1.0       0.7224691636453809  0.8679844214958881  0.7367570233311037 1.0000   
         H         H         1.0       0.7203640974430997  0.8890743641505511  0.7808186479881932 1.0000   
         H         H         1.0       0.7430025006992139  0.8508587508857297  0.7769442416713042 1.0000   
         H         H         1.0       0.72141531183194    0.8417469519295213  0.7266939273353556 1.0000   
         H         H         1.0       0.7011277437912047  0.8849825264588249  0.7314060808919738 1.0000   
         C         C         1.0       0.5366594967788775  0.8233087565025118  0.5674585909715578 1.0000   
         C         C         1.0       0.49912649576458773           0.8341951309375114 0.5695385813449326 1.0000   
         H         H         1.0       0.5525421844271959  0.841697779829984   0.5534125212222498 1.0000   
         H         H         1.0       0.5373402345965914  0.7993699349422458  0.5548472567875731 1.0000   
         H         H         1.0       0.4907525108548703  0.8440133174767607  0.5480314802729382 1.0000   
         H         H         1.0       0.49574199893859555           0.858063972525249  0.5836901085857932 1.0000   
         C         C         1.0       0.8166265709114031  0.9280432555763624  0.46776108508819625          1.0000   
         C         C         1.0       0.8194858206336297  0.9312960792699536  0.43499459917534017          1.0000   
         H         H         1.0       0.8057622647224255  0.9513399004049674  0.47894160164835686          1.0000   
         H         H         1.0       0.8414337536419623  0.9273412921994654  0.4772123593936443 1.0000   
         H         H         1.0       0.7947760717024621  0.932303653492406   0.42556684970105346          1.0000   
         H         H         1.0       0.8324764106013326  0.9097818950964487  0.42565398151035705          1.0000   
         C         C         1.0       0.5165382492132596  0.6603223636613095  0.4869439795908466 1.0000   
         C         C         1.0       0.4985830259188829  0.6801091721874553  0.5110220322460294 1.0000   
         H         H         1.0       0.49493066924455337           0.6519361224753152 0.47280130983782936          1.0000   
         H         H         1.0       0.5281278673784926  0.6357775990432736  0.49547728678009517          1.0000   
         H         H         1.0       0.4888336609877968  0.6604387886838489  0.5264419839232227 1.0000   
         H         H         1.0       0.5157537213505485  0.6934412708453513  0.5263759365859167 1.0000   
         C         C         1.0       0.7475195157378317  0.8607006216767118  0.617766800348897  1.0000   
         C         C         1.0       0.7490418133128468  0.834257102213854   0.6422528809074158 1.0000   
         H         H         1.0       0.7705006387871448  0.874851000266217   0.6188399245116009 1.0000   
         H         H         1.0       0.728512397164606   0.8795902415562138  0.622068714438561  1.0000   
         H         H         1.0       0.7586460939978559  0.8467933755907536  0.6636230931240985 1.0000   
         H         H         1.0       0.7683241948649323  0.8157519759772597  0.6362884338628775 1.0000   
         C         C         1.0       0.7467774913408803  0.31657674560128296           0.7138672458200629 1.0000   
         C         C         1.0       0.7588772956216029  0.28894267366746273           0.7345511392051814 1.0000   
         H         H         1.0       0.7211467995869422  0.3115070314080522  0.7079366215272678 1.0000   
         H         H         1.0       0.7617333948965852  0.31675472719824393           0.694346562329124  1.0000   
         H         H         1.0       0.7442263525770743  0.2656096723791848  0.7297443708234221 1.0000   
         H         H         1.0       0.7526107914354359  0.2952427175215783  0.7570052783377191 1.0000   
         C         C         1.0       0.6429720147124005  0.6004543340116836  0.6032731732528253 1.0000   
         C         C         1.0       0.6224108581739354  0.6091058947401132  0.6302482613505563 1.0000   
         H         H         1.0       0.6549856915080547  0.6238519075018188  0.5932644156604598 1.0000   
         H         H         1.0       0.6264516606375158  0.5899417875033284  0.586694910814835  1.0000   
         H         H         1.0       0.5964458882707812  0.5983909005107613  0.6299045986253382 1.0000   
         H         H         1.0       0.6349619421496175  0.5952780240707027  0.6475167700270024 1.0000   
         C         C         1.0       0.6509914685151335  0.35111446016895065           0.6067888799298863 1.0000   
         C         C         1.0       0.6795849995022714  0.355288783787125   0.5836839216019428 1.0000   
         H         H         1.0       0.6366356168949864  0.32599337441576703           0.6021113208818442 1.0000   
         H         H         1.0       0.6645135630233473  0.3482400779431497  0.6255433940487973 1.0000   
         H         H         1.0       0.6652909364545232  0.35742495867694457           0.5631474341180764 1.0000   
         H         H         1.0       0.6940187390043132  0.33110549292810676           0.5817562634840279 1.0000   
         C         C         1.0       0.7664017957110599  0.26375835895508554           0.4158390436789392 1.0000   
         C         C         1.0       0.7388074362499857  0.27386565649510275           0.4377080536826573 1.0000   
         H         H         1.0       0.7639835047357013  0.2736477071033711  0.3931905058883093 1.0000   
         H         H         1.0       0.7611413714472922  0.236805608634863   0.4115192428589531 1.0000   
         H         H         1.0       0.7167106011146673  0.26138669433213996           0.42804467368052673          1.0000   
         H         H         1.0       0.7441211000683076  0.2603984503273513  0.4585899742124377 1.0000   
         C         C         1.0       0.7620030972473858  0.6657634253559823  0.4291464167264871 1.0000   
         C         C         1.0       0.785840027191925   0.6690494333718976  0.4549038524261161 1.0000   
         H         H         1.0       0.7370762393928876  0.6730492317363821  0.43468241775285393          1.0000   
         H         H         1.0       0.7676571528882964  0.6841552136692071  0.4130272822182015 1.0000   
         H         H         1.0       0.8113315489488387  0.6696051650532776  0.44743363091845295          1.0000   
         H         H         1.0       0.7831541263351152  0.6481752369467584  0.4706977412627626 1.0000   
         C         C         1.0       0.6104570064438972  0.5210697387376939  0.5086686478155709 1.0000   
         C         C         1.0       0.6281560620550741  0.4972944171670338  0.5314024292885431 1.0000   
         H         H         1.0       0.5925403856301664  0.5390267337026585  0.5196564011672832 1.0000   
         H         H         1.0       0.6318430973305577  0.5381074008297955  0.4989927710790894 1.0000   
         H         H         1.0       0.6098133991034808  0.4797218178399828  0.5420080627057214 1.0000   
         H         H         1.0       0.6392966879724894  0.5106976709753751  0.5512300395133903 1.0000   
         C         C         1.0       0.86040301300747    0.432290656319337   0.5336907623077303 1.0000   
         C         C         1.0       0.8591606606885108  0.4725005163744775  0.5432303252015888 1.0000   
         H         H         1.0       0.8844223437358291  0.42835394224869017           0.5226528265819843 1.0000   
         H         H         1.0       0.8592925421196709  0.41611733213325786           0.5528651986993025 1.0000   
         H         H         1.0       0.8581833869374718  0.48920895817054544           0.524445866316117  1.0000   
         H         H         1.0       0.8836520299980511  0.4792257779579308  0.5534625146901221 1.0000   
         C         C         1.0       0.3277980228921533  0.4480120057839864  0.920166529269611  1.0000   
         C         C         1.0       0.3172013543780547  0.445589759892178   0.9523593726613923 1.0000   
         H         H         1.0       0.30688673951614887           0.44312535312368473          0.9059500854053514 1.0000   
         H         H         1.0       0.34274827099654415           0.4246799630196797 0.915865693019666  1.0000   
         H         H         1.0       0.30540461076138586           0.4712389315615036 0.9583122974469371 1.0000   
         H         H         1.0       0.3412575198135976  0.44559523443729543           0.9646064689862025 1.0000   
         C         C         1.0       0.3140952906159273  0.6847373445829802  0.850859977881997  1.0000   
         C         C         1.0       0.30850601299528957           0.6893788742077216 0.8188858342094412 1.0000   
         H         H         1.0       0.2897452776514169  0.6749542225542472  0.8602298070914005 1.0000   
         H         H         1.0       0.3165110342101163  0.7130568730005472  0.8601648962405082 1.0000   
         H         H         1.0       0.28449120555318264           0.7041147244036464 0.8164221040202987 1.0000   
         H         H         1.0       0.30093402346964654           0.6653966567520736 0.8123641113463989 1.0000   
         C         C         1.0       0.5320297150575347  0.568626702249941   0.8397711072199607 1.0000   
         C         C         1.0       0.5569154146713194  0.5413651663711485  0.8515473694776545 1.0000   
         H         H         1.0       0.5294405504137538  0.5657031462508747  0.8170028753054864 1.0000   
         H         H         1.0       0.5436564547842078  0.5947994269416343  0.8398716191886939 1.0000   
         H         H         1.0       0.5530658250955427  0.5383747832385496  0.8741189449597835 1.0000   
         H         H         1.0       0.5817978379085879  0.5526604864292719  0.846349262585265  1.0000   
         C         C         1.0       0.21830762426768022           0.3477177006866755 0.25689487706225594          1.0000   
         C         C         1.0       0.22807226615118156           0.33855227244678915          0.22533793548812356          1.0000   
         H         H         1.0       0.21936249589724813           0.3763138806075137 0.25882311778822314          1.0000   
         H         H         1.0       0.2396842568096555  0.34000688326361406           0.27021644126386996          1.0000   
         H         H         1.0       0.20605369165214552           0.34410161342267204          0.21076948237197712          1.0000   
         H         H         1.0       0.23262312513862105           0.30960299122052315          0.2260730723006046 1.0000   
         C         C         1.0       0.32137891478764585           0.441118605557123  0.0378895976686029 1.0000   
         C         C         1.0       0.29329082038749543           0.4347438951846568 0.05979865732588506          1.0000   
         H         H         1.0       0.3409249782911971  0.4221996221136521  0.039984427924773414         1.0000   
         H         H         1.0       0.3072920157741328  0.43800331507125967           0.016984500182831708         1.0000   
         H         H         1.0       0.282165255754557   0.4094461711488619  0.053111762929586935         1.0000   
         H         H         1.0       0.2731089094088786  0.452686950834222   0.0575253215343969 1.0000   
         C         C         1.0       0.28726290392984716           0.6604801500266687 0.27336655411600225          1.0000   
         C         C         1.0       0.2994409463460333  0.6880745152165717  0.29525815915476655          1.0000   
         H         H         1.0       0.2630065092569038  0.6488140569339526  0.28164717256482485          1.0000   
         H         H         1.0       0.2811328848362229  0.6714011364942551  0.2529915524826733 1.0000   
         H         H         1.0       0.2786726214231724  0.7010306316998705  0.30618001447522636          1.0000   
         H         H         1.0       0.3118248410273318  0.7054988766221518  0.28037531809029265          1.0000   
         C         C         1.0       0.47054575579994995           0.4936048174242758 0.35537643089522675          1.0000   
         C         C         1.0       0.4388914209825104  0.4733421564037553  0.3472643926989463 1.0000   
         H         H         1.0       0.464168634510404   0.5199616761684729  0.36455437549498093          1.0000   
         H         H         1.0       0.4858004848480881  0.49743100333662676           0.33598480095430483          1.0000   
         H         H         1.0       0.42118257189922376           0.46935952746554294          0.3667451167494488 1.0000   
         H         H         1.0       0.4443035036912222  0.44804118498246626           0.3419723596124216 1.0000   
         C         C         1.0       0.8747012407115003  0.43104668104869104           0.8948371949321984 1.0000   
         C         C         1.0       0.9006362338347456  0.41933274368210766           0.9178534954354433 1.0000   
         H         H         1.0       0.8791039268828386  0.41684584677524184           0.8755506765464178 1.0000   
         H         H         1.0       0.8832580971155063  0.45682286571677183           0.8874668280624134 1.0000   
         H         H         1.0       0.9014341508393267  0.44026348770558    0.9328030285505315 1.0000   
         H         H         1.0       0.9253137196119214  0.41908959713597227           0.908556197588376  1.0000   
         C         C         1.0       0.6445133756502581  0.5258730083417213  0.8534538982041442 1.0000   
         C         C         1.0       0.6642430765533625  0.5398603703593584  0.8264380402757145 1.0000   
         H         H         1.0       0.6239922716605406  0.5088958782783961  0.8455723179409953 1.0000   
         H         H         1.0       0.6328286153221154  0.548005548394786   0.8658660759770822 1.0000   
         H         H         1.0       0.6854963439901736  0.5571823810306029  0.8333162997405752 1.0000   
         H         H         1.0       0.6463702158057213  0.5567802216236095  0.8146404760184828 1.0000   
         C         C         1.0       0.6604216908947246  0.32040922187528775           0.8138031624944067 1.0000   
         C         C         1.0       0.6727617862240732  0.3115305702269698  0.8441917064579202 1.0000   
         H         H         1.0       0.6496400697021009  0.29466846130766833           0.8063938978765034 1.0000   
         H         H         1.0       0.6829887565323652  0.3253605192188096  0.7984758334998074 1.0000   
         H         H         1.0       0.6507720078430759  0.3042461102329687  0.8569216894443917 1.0000   
         H         H         1.0       0.6891443018739791  0.28935559511351633           0.8403385040958329 1.0000   
         C         C         1.0       0.5702853444949261  0.538876742105747   0.01985251867053739          1.0000   
         C         C         1.0       0.5530886650315908  0.5472544081805163  0.0475203175844463 1.0000   
         H         H         1.0       0.5807930061645981  0.5615737828215684  0.008648923394164454         1.0000   
         H         H         1.0       0.5493164279627337  0.5267324435848556  0.006696280454345117         1.0000   
         H         H         1.0       0.5618345412510473  0.528544482709938   0.06458464816811116          1.0000   
         H         H         1.0       0.5628410310828089  0.5714324094565395  0.05611583257352648          1.0000   
         C         C         1.0       0.8922038568238021  0.3831481626103307  0.2516535191040184 1.0000   
         C         C         1.0       0.8815151420654848  0.4043001123291847  0.22514723635951725          1.0000   
         H         H         1.0       0.874783529004985   0.3893422174722194  0.2702520284078082 1.0000   
         H         H         1.0       0.9162855849026933  0.3939339835029021  0.25905891482683135          1.0000   
         H         H         1.0       0.8934247138213802  0.4293668926937292  0.22808247082499924          1.0000   
         H         H         1.0       0.8942798410602081  0.39161805813918144           0.2059673066988761 1.0000   
         C         C         1.0       0.48671517144089516           0.4313379543796884 0.2316647552206845 1.0000   
         C         C         1.0       0.47751051053281385           0.4022189461183404 0.20949674086270004          1.0000   
         H         H         1.0       0.46862068017507824           0.42900911442365525          0.24923998164785913          1.0000   
         H         H         1.0       0.481978765258748   0.4553133820004885  0.22187463209995165          1.0000   
         H         H         1.0       0.4920170308371223  0.4078105826763988  0.19043701051544604          1.0000   
         H         H         1.0       0.48110485995515156           0.3752516835385666 0.2188671337548706 1.0000   
         C         C         1.0       0.6990755372211529  0.30562662274022434           0.11575580277791309          1.0000   
         C         C         1.0       0.6636437268354636  0.31806570059387135           0.10949367296050255          1.0000   
         H         H         1.0       0.7157445823961374  0.29922043629171835           0.09627071295048815          1.0000   
         H         H         1.0       0.6976936755972857  0.28148327829945835           0.1282724012488393 1.0000   
         H         H         1.0       0.6548853224648825  0.29392920317469323           0.10002032870428902          1.0000   
         H         H         1.0       0.6501133182320908  0.32625125275047645           0.1282188262075049 1.0000   
         C         C         1.0       0.5928513781693711  0.5752564409306534  0.3118478057504022 1.0000   
         C         C         1.0       0.6259954976023686  0.594187149349476   0.3180032344721971 1.0000   
         H         H         1.0       0.5789555789090283  0.5917590799568487  0.2975611275298355 1.0000   
         H         H         1.0       0.5753278640323315  0.5755556607297957  0.3307181507630842 1.0000   
         H         H         1.0       0.6184928395344709  0.6186096654957376  0.32786379252630626          1.0000   
         H         H         1.0       0.632813772379402   0.6039584734853376  0.29693450923144515          1.0000   
         C         C         1.0       0.6799076961511749  0.3425387703847369  0.36966306376559965          1.0000   
         C         C         1.0       0.6557945525395494  0.3227766034894657  0.39064471380134536          1.0000   
         H         H         1.0       0.6986493005171526  0.35720605283637463           0.38331936867049965          1.0000   
         H         H         1.0       0.6955617268858562  0.32259464689365247           0.3577316859813886 1.0000   
         H         H         1.0       0.6713281200642043  0.30938896904917956           0.40701613142226034          1.0000   
         H         H         1.0       0.644914666677599   0.300773764845235   0.37880214473298185          1.0000   
         C         C         1.0       0.8430118777890078  0.7550605179764809  0.9162997517449937 1.0000   
         C         C         1.0       0.8408261014242928  0.7605565798850378  0.9498406447898972 1.0000   
         H         H         1.0       0.8688656308629357  0.7502283252373546  0.9088233026454878 1.0000   
         H         H         1.0       0.835397953926518   0.7793946054937873  0.9054174237084761 1.0000   
         H         H         1.0       0.8460630878884868  0.7361429657965586  0.960791707246898  1.0000   
         H         H         1.0       0.8146846372074921  0.7656489205048571  0.9558227939850507 1.0000   
         C         C         1.0       0.6303534076273533  0.6272886160215969  0.8399671608600339 1.0000   
         C         C         1.0       0.6039797543615651  0.6542084889534415  0.8498163975809636 1.0000   
         H         H         1.0       0.6363293317925248  0.6268720775788554  0.8171188313055863 1.0000   
         H         H         1.0       0.6168919582819059  0.6017898926555502  0.8428897031052122 1.0000   
         H         H         1.0       0.6049762586069152  0.6565490697028437  0.8741147113273952 1.0000   
         H         H         1.0       0.5804792866660597  0.6412681372830008  0.8478297460277573 1.0000   
         C         C         1.0       0.8496958602092048  0.5265914952681908  0.8448054215075349 1.0000   
         C         C         1.0       0.8613678635992639  0.5236757653553321  0.8124681093484174 1.0000   
         H         H         1.0       0.8710165014526203  0.5354920479453581  0.8573029675552215 1.0000   
         H         H         1.0       0.8459870086456466  0.5007326604585413  0.8529778215659916 1.0000   
         H         H         1.0       0.8864278690200341  0.5099878605795507  0.8091302530471709 1.0000   
         H         H         1.0       0.8685524178557872  0.5498512790626349  0.8049191342876867 1.0000   
         C         C         1.0       0.8127390464869221  0.5175288554291615  0.08892403442120324          1.0000   
         C         C         1.0       0.7914249180017447  0.4937333905981415  0.10884464966920039          1.0000   
         H         H         1.0       0.823893689162388   0.5005610470118178  0.07183396035469514          1.0000   
         H         H         1.0       0.8354872900880015  0.5280587752298296  0.10150859493328501          1.0000   
         H         H         1.0       0.7839910723402433  0.5054200302774128  0.1296195945260405 1.0000   
         H         H         1.0       0.808275532377097   0.4751119844046731  0.11722404609548226          1.0000   
         C         C         1.0       0.9345098786763434  0.8291236885340693  0.2478163627422516 1.0000   
         C         C         1.0       0.9228001263431884  0.8359722529125498  0.2173850085376266 1.0000   
         H         H         1.0       0.9385930742443966  0.8016527464325961  0.2534587516481549 1.0000   
         H         H         1.0       0.9114775183791721  0.8379006619871873  0.2593880359673536 1.0000   
         H         H         1.0       0.94169986820932    0.8282139780004865  0.20289310229895036          1.0000   
         H         H         1.0       0.9197327220491176  0.8637523241898059  0.21546497690255487          1.0000   
         C         C         1.0       0.6543966643017215  0.5605557352848594  0.1888162643312155 1.0000   
         C         C         1.0       0.6707740907870274  0.5470731620661275  0.1601226101611141 1.0000   
         H         H         1.0       0.6340028469758593  0.5794866875354608  0.1824439526702417 1.0000   
         H         H         1.0       0.6405439277470782  0.539302689877271   0.20030495057847356          1.0000   
         H         H         1.0       0.688680363139862   0.5659808114500634  0.1513224541354059 1.0000   
         H         H         1.0       0.6493633406734918  0.5413770217087854  0.14367084545278247          1.0000   
         C         C         1.0       0.8460278663036561  0.7717424188194353  0.06302262640957348          1.0000   
         C         C         1.0       0.8197883547531304  0.7653580182293568  0.03878559357334299          1.0000   
         H         H         1.0       0.8563694276788647  0.7996863335262149  0.06605156547129842          1.0000   
         H         H         1.0       0.868820375108007   0.7572795466626783  0.05834397889185615          1.0000   
         H         H         1.0       0.8314253133787262  0.7713777458849416  0.018813797545215838         1.0000   
         H         H         1.0       0.8002549364897062  0.7852472757185038  0.04340489399616754          1.0000   
         C         C         1.0       0.7133791742363523  0.685189413989374   0.3443281471146003 1.0000   
         C         C         1.0       0.6774921283568618  0.6726436953562589  0.35009347717033024          1.0000   
         H         H         1.0       0.729077616192116   0.682060773589323   0.3639101727448777 1.0000   
         H         H         1.0       0.7089546538867056  0.7119983895161385  0.33934766990217247          1.0000   
         H         H         1.0       0.6623438172380955  0.6723588436812233  0.32973905937948   1.0000   
         H         H         1.0       0.6765451273787366  0.6455782152418711  0.3574168059834602 1.0000   
         C         C         1.0       0.8624808490343167  0.5068276272400293  0.2852670588816782 1.0000   
         C         C         1.0       0.8409435718814741  0.47491457933247455           0.29282238039139125          1.0000   
         H         H         1.0       0.8824102499329124  0.5010087037929265  0.2685751174628417 1.0000   
         H         H         1.0       0.8780215799837743  0.5162847223470484  0.3018864259905979 1.0000   
         H         H         1.0       0.8580889534734536  0.45414411323983744           0.29727294032438306          1.0000   
         H         H         1.0       0.8295139451935456  0.4653323872667247  0.27242190303949626          1.0000   
         C         C         1.0       0.28180084397045096           0.7615620330323598 0.9584342345662514 1.0000   
         C         C         1.0       0.25955982416168394           0.77811942647392   0.93657637022802   1.0000   
         H         H         1.0       0.27281518057007276           0.7345002090061997 0.9582839962658761 1.0000   
         H         H         1.0       0.2745841822066937  0.7714778686663243  0.9788241727692594 1.0000   
         H         H         1.0       0.23325830051471474           0.7659222481276193 0.9365675591276772 1.0000   
         H         H         1.0       0.2696056418534242  0.7727384501854334  0.9153249148940392 1.0000   
         C         C         1.0       0.47170736637166294           0.8787354291614119 0.8591019618200014 1.0000   
         C         C         1.0       0.4795962848905947  0.8657255304699089  0.8284856792617955 1.0000   
         H         H         1.0       0.45018693982826613           0.8983891712956947 0.8595185324686911 1.0000   
         H         H         1.0       0.49516771997861786           0.8912969576927274 0.8670552208558876 1.0000   
         H         H         1.0       0.4841076796274796  0.8917218002407202  0.8183915062773288 1.0000   
         H         H         1.0       0.45743049754317217           0.8545814472724462 0.8165370778671479 1.0000   
         C         C         1.0       0.492141330020351   0.6699744066450058  0.8295728909994752 1.0000   
         C         C         1.0       0.5064573591793954  0.6849580079638053  0.8568970327327561 1.0000   
         H         H         1.0       0.4686042172513929  0.6543619376434693  0.8363284732888715 1.0000   
         H         H         1.0       0.5105513610690541  0.6496628041557506  0.820891577579652  1.0000   
         H         H         1.0       0.5232603739882373  0.7051648632408503  0.8487201933614317 1.0000   
         H         H         1.0       0.5258102396723715  0.6670443635769074  0.8675995356699728 1.0000   
         C         C         1.0       0.5920324544999334  0.6772083640558253  0.04417912565104354          1.0000   
         C         C         1.0       0.6110747878366447  0.6729335802875048  0.07129501241830287          1.0000   
         H         H         1.0       0.6089249370916544  0.6868093437018619  0.027667377169820373         1.0000   
         H         H         1.0       0.5805585878254181  0.6516158099811118  0.036817517554402324         1.0000   
         H         H         1.0       0.5983294938309911  0.651666967381989   0.083652953363361  1.0000   
         H         H         1.0       0.6122457217115307  0.6944325274468126  0.08648805272916141          1.0000   
         C         C         1.0       0.33400785304136793           0.6781992478092473 0.09514925598858319          1.0000   
         C         C         1.0       0.3489260472389085  0.7015800781584236  0.11900195535834904          1.0000   
         H         H         1.0       0.3105427877330455  0.6654505889521971  0.10391094539130406          1.0000   
         H         H         1.0       0.32256039940037806           0.6939221117854828 0.0780738728845527 1.0000   
         H         H         1.0       0.35410535050402125           0.6867316284806643 0.13917182406403894          1.0000   
         H         H         1.0       0.3282027807114216  0.7191264272899729  0.1275337016250676 1.0000   
         C         C         1.0       0.280287887382593   0.7864415776883897  0.2626023242381416 1.0000   
         C         C         1.0       0.25602118572324684           0.8043839322281854 0.24208737011948234          1.0000   
         H         H         1.0       0.26901319742787017           0.7618127899926571 0.2665805919572127 1.0000   
         H         H         1.0       0.2824972860025509  0.7967009181104128  0.28500124583822756          1.0000   
         H         H         1.0       0.2635813334116644  0.7980772805918488  0.2190689509969064 1.0000   
         H         H         1.0       0.23080346813536728           0.7941455875802663 0.24490134438444666          1.0000   
         C         C         1.0       0.6660411352838906  0.7422926954904302  0.2560494052095525 1.0000   
         C         C         1.0       0.6759929928244209  0.7656493634178196  0.2305784104632119 1.0000   
         H         H         1.0       0.6857279019953255  0.7482411583158649  0.2727859998306842 1.0000   
         H         H         1.0       0.670103250404388   0.7152960981550248  0.2501750787436979 1.0000   
         H         H         1.0       0.6569209928527091  0.7581742745499057  0.21497642585960838          1.0000   
         H         H         1.0       0.6705448987492069  0.7934284614374768  0.2362096335444034 1.0000   
         C         C         1.0       0.49362911927386516           0.6106957356521532 0.19401328952974925          1.0000   
         C         C         1.0       0.47184769775329055           0.6286407479943334 0.17125855700337506          1.0000   
         H         H         1.0       0.5095171413180279  0.6301691972931815  0.20668135969032667          1.0000   
         H         H         1.0       0.5118842092510624  0.5946072620512982  0.1814479211840342 1.0000   
         H         H         1.0       0.4888765701013441  0.6321545185281555  0.15085265937648482          1.0000   
         H         H         1.0       0.44989031699383364           0.6134452159248505 0.16430377851078665          1.0000   
         C         C         1.0       0.45904936251942585           0.8840151933285544 0.1375244768509957 1.0000   
         C         C         1.0       0.42327616912169097           0.8822901263934411 0.15176069858144944          1.0000   
         H         H         1.0       0.4775278430112808  0.8900227711766416  0.15474813071346374          1.0000   
         H         H         1.0       0.4609743416259136  0.9071949204451251  0.12375229015870737          1.0000   
         H         H         1.0       0.40459108258875204           0.8842154110085471 0.1342113561020864 1.0000   
         H         H         1.0       0.4193485591053558  0.9039890372799922  0.1658062596074089 1.0000   
         C         C         1.0       0.4887172713559572  0.8599709257832604  0.39511990618204335          1.0000   
         C         C         1.0       0.5192253140380076  0.8735660136306839  0.4128877160758753 1.0000   
         H         H         1.0       0.4758189702483526  0.881085753914069   0.38585652967615514          1.0000   
         H         H         1.0       0.47052485614192885           0.8466477201205532 0.4082384807955739 1.0000   
         H         H         1.0       0.5051055558937493  0.8827179620190513  0.4334770584152207 1.0000   
         H         H         1.0       0.5327252690692555  0.8964085136901572  0.4026935377422051 1.0000   
         C         C         1.0       0.523644616398509   0.5894275512340359  0.37353491826629664          1.0000   
         C         C         1.0       0.5502118975896594  0.6186864995289102  0.3720913026835082 1.0000   
         H         H         1.0       0.5273811196777667  0.573427976753934   0.392966227218621  1.0000   
         H         H         1.0       0.5268357344563633  0.5697315002785787  0.35518512024498405          1.0000   
         H         H         1.0       0.5524966830478227  0.6281456679301552  0.39484170407210356          1.0000   
         H         H         1.0       0.5747079390030769  0.6090610760577195  0.36888078455278517          1.0000

