data_0
_chemical_formula_structural 
                                        C6H4C38H24C6H4C38H24C6H4C38H24C6H4C38H24C6H4C38H24C6H4C38H24C6H4C38H24C6H4C38H24C6H4C38H24C6H4C38H24C6H4C38H24C6H4C38H24C6H4C38H24C6H4C38H24C6H4C38H24C6H4C38H24C6H4C38H24C6H4C38H24C6H4C38H24C6H4C38H24C6H4C38H24C6H4C38H24C6H4C38H24C6H4C38H24C6H4C38H24C6H4C38H24C6H4C38H24C6H4C38H24C6H4C38H24C6H4C38H24C6H4C38H24C6H4C38H24C2H4C2H4C2H4C2H4C2H4C2H4C2H4C2H4C2H4C2H4C2H4C2H4C2H4C2H4C2H4C2H4C2H4C2H4C2H4C2H4C2H4C2H4C2H4C2H4C2H4C2H4C2H4C2H4C2H4C2H4C2H4C2H4C2H4C2H4C2H4C2H4C2H4C2H4C2H4C2H4C2H4C2H4C2H4C2H4C2H4C2H4C2H4C2H4C2H4C2H4C2H4C2H4C2H4C2H4C2H4C2H4C2H4C2H4C2H4C2H4C2H4C2H4C2H4C2H4C2H4C2H4C2H4C2H4C2H4C2H4C2H4C2H4C2H4C2H4C2H4C2H4C2H4C2H4C2H4C2H4C2H4C2H4C2H4C2H4C2H4C2H4C2H4C2H4C2H4C2H4C2H4C2H4C2H4C2H4C2H4C2H4
_chemical_formula_sum                   'C1600 H1280'
_cell_length_a                          36.219987078269426
_cell_length_b                          35.531354378328174
_cell_length_c                          42.64468934684154
_cell_angle_alpha                       90.36735072473422
_cell_angle_beta                        89.27447623151104
_cell_angle_gamma                       89.87207484554858
_space_group_name_H-M_alt               'P 1'
_space_group_IT_number                  1
loop_
  _space_group_symop_operation_xyz
         'x, y, z' 
loop_
  _atom_site_type_symbol
  _atom_site_label
  _atom_site_symmetry_multiplicity
  _atom_site_fract_x
  _atom_site_fract_y
  _atom_site_fract_z
  _atom_site_occupancy
         C         C         1.0       0.6812006494248417  0.949206776777395   0.3415442814395892 1.0000   
         C         C         1.0       0.6904928424226908  0.9470423653859139  0.3104802793298406 1.0000   
         C         C         1.0       0.6762182090859971  0.9179626628169792  0.29214450039959255          1.0000   
         C         C         1.0       0.6549514148590139  0.889701251167748   0.3038106175377659 1.0000   
         C         C         1.0       0.6432686650813951  0.8959889934266528  0.3349629011488028 1.0000   
         C         C         1.0       0.654530076877968   0.9241891940386012  0.3535713241460357 1.0000   
         H         H         1.0       0.7080521105946297  0.9672139192082043  0.2996719890902116 1.0000   
         H         H         1.0       0.6874371603727126  0.9162755578598712  0.2676191155264484 1.0000   
         H         H         1.0       0.6249549134364167  0.8742140338428154  0.3432621186301684 1.0000   
         H         H         1.0       0.6459190834717807  0.926851597233688   0.37855735293062326          1.0000   
         C         C         1.0       0.6469287728756682  0.8034910162450958  0.3238419222684108 1.0000   
         C         C         1.0       0.6305215225305966  0.8186250065120931  0.2962044347340197 1.0000   
         C         C         1.0       0.6047383731126273  0.795798161103008   0.2811585394333515 1.0000   
         C         C         1.0       0.595230927065928   0.7615885119931551  0.29153839159635425          1.0000   
         C         C         1.0       0.6112492611496758  0.7494629529980276  0.3191640124813003 1.0000   
         C         C         1.0       0.6346958567151388  0.7711726451896102  0.3357678445649999 1.0000   
         C         C         1.0       0.6441956469120383  0.8553558390976836  0.28062824080127335          1.0000   
         C         C         1.0       0.6803240889840955  0.8373785064063791  0.26334160580005783          1.0000   
         C         C         1.0       0.6816579665326326  0.8251183284629316  0.23193371384486713          1.0000   
         C         C         1.0       0.7143788127204118  0.8121857434769753  0.21877102636313644          1.0000   
         C         C         1.0       0.7461090087343647  0.8074437663851644  0.23754474110691554          1.0000   
         C         C         1.0       0.7460003913599881  0.8197943468777593  0.26806109909872183          1.0000   
         C         C         1.0       0.7133488189246688  0.8342495446590386  0.2791293212442532 1.0000   
         C         C         1.0       0.5818758646375382  0.8848650357920808  0.27418642578006197          1.0000   
         C         C         1.0       0.5551568719466976  0.9064152213695689  0.26145307168426885          1.0000   
         C         C         1.0       0.5626895416647255  0.9263682602535264  0.23428074716288655          1.0000   
         C         C         1.0       0.5962980709891185  0.91906311669769    0.21852944066043692          1.0000   
         C         C         1.0       0.6226205064489249  0.8960476218458665  0.23149229035719868          1.0000   
         C         C         1.0       0.6158488333448087  0.8786749485232713  0.2601921545639669 1.0000   
         C         C         1.0       0.5295967826866699  0.9470217154432864  0.21801845730539224          1.0000   
         C         C         1.0       0.4682141791873331  0.84675624712599    0.18648408760914836          1.0000   
         C         C         1.0       0.45514049843299875           0.8683459232460515 0.21097604311643306          1.0000   
         C         C         1.0       0.47275126378661597           0.9014054428543051 0.22014904229052543          1.0000   
         C         C         1.0       0.5064536531697019  0.9123228779252452  0.20531032852709238          1.0000   
         C         C         1.0       0.5198600177731251  0.8890490240694887  0.18155076213349697          1.0000   
         C         C         1.0       0.5000504636291631  0.8570039175858093  0.17205302989961224          1.0000   
         C         C         1.0       0.5453701575141751  0.9744774669776648  0.19320249076153156          1.0000   
         C         C         1.0       0.571740407640357   0.0005393936661444165        0.20143601546745465          1.0000   
         C         C         1.0       0.584100920810891   0.027633383082008356         0.18153636592342634          1.0000   
         C         C         1.0       0.5701785010505616  0.02892196401955105           0.15144671853222083          1.0000   
         C         C         1.0       0.5452717797653114  0.0024813883085739175        0.1418997266176311 1.0000   
         C         C         1.0       0.5323866044248721  0.9768613398485559  0.16231812542959212          1.0000   
         C         C         1.0       0.472145782327885   0.9927017025956367  0.22728387714369142          1.0000   
         C         C         1.0       0.45599994182437587           0.022297407064632457         0.24341157489774562          1.0000   
         C         C         1.0       0.46567765001981554           0.0297214822249543 0.27407079844171905          1.0000   
         C         C         1.0       0.4967616328898209  0.014698775808715148         0.28558420533711193          1.0000   
         C         C         1.0       0.5172361799274117  0.9904659048451147  0.2670122561681332 1.0000   
         C         C         1.0       0.5041104594172615  0.9755823815306283  0.23921498847582018          1.0000   
         H         H         1.0       0.6656586798075623  0.8212681093049897  0.33616380976340093          1.0000   
         H         H         1.0       0.5962673541025767  0.8048464045788212  0.25892941714916146          1.0000   
         H         H         1.0       0.577358915520731   0.7455717222051021  0.2767303261012282 1.0000   
         H         H         1.0       0.6437545476184159  0.7608882630564364  0.3581446933672592 1.0000   
         H         H         1.0       0.6592618545204629  0.8251646910249674  0.21662350067204336          1.0000   
         H         H         1.0       0.7157308319333249  0.8033934504347927  0.19461588100326507          1.0000   
         H         H         1.0       0.7688786409120786  0.8171974614985238  0.2825327314744398 1.0000   
         H         H         1.0       0.7168200996913123  0.8463435421925942  0.30256174952065285          1.0000   
         H         H         1.0       0.5778919353292038  0.8753124042128149  0.2971864047516822 1.0000   
         H         H         1.0       0.5271691787630941  0.9094357070835445  0.2696654536296298 1.0000   
         H         H         1.0       0.6023020884093968  0.9323913673169899  0.19624885747159573          1.0000   
         H         H         1.0       0.6506770369418663  0.8964442523487125  0.22061276455739487          1.0000   
         H         H         1.0       0.4318592979734966  0.8569505482043723  0.22303562622691478          1.0000   
         H         H         1.0       0.46207085313884066           0.9169976517583404 0.24039486776440547          1.0000   
         H         H         1.0       0.5440075363447402  0.895105260319833   0.16906660349143712          1.0000   
         H         H         1.0       0.5124354504414012  0.8377295314500476  0.15469534414342676          1.0000   
         H         H         1.0       0.5834922912761864  0.0020282574668322173        0.22603613721519114          1.0000   
         H         H         1.0       0.605487758202673   0.046793687846913956         0.18854180454700167          1.0000   
         H         H         1.0       0.5340850436002155  0.0021788431938454256        0.11753814123089695          1.0000   
         H         H         1.0       0.5142376582291247  0.9539883096432183  0.15367567317330688          1.0000   
         H         H         1.0       0.4630246477280632  0.9841817386373732  0.20513575204644335          1.0000   
         H         H         1.0       0.4290185074788957  0.034104467917677406         0.23561516303773908          1.0000   
         H         H         1.0       0.5068806180225759  0.018192345030640933         0.30934704179815614          1.0000   
         H         H         1.0       0.5430326964535213  0.9800970011301329  0.27519522110043676          1.0000   
         C         C         1.0       0.5397626743793524  0.9399617335715803  0.9360694300585031 1.0000   
         C         C         1.0       0.5451880942819745  0.901966313171297   0.9342380340792779 1.0000   
         C         C         1.0       0.5816891262937681  0.8874179834204448  0.929256779881809  1.0000   
         C         C         1.0       0.6118042961400898  0.9119062657764645  0.9272157452368153 1.0000   
         C         C         1.0       0.6049785349111917  0.9499528664102842  0.9325107520186772 1.0000   
         C         C         1.0       0.5692611245552196  0.9636619933556294  0.9385503410626402 1.0000   
         H         H         1.0       0.5229021005344232  0.8813659981100627  0.9354864881130712 1.0000   
         H         H         1.0       0.5852267986500196  0.857372767402039   0.9264828534377096 1.0000   
         H         H         1.0       0.6280687880087144  0.9688034813119439  0.9352780494742932 1.0000   
         H         H         1.0       0.5617970644290627  0.9919008536557838  0.9440990500185479 1.0000   
         C         C         1.0       0.6751579762041241  0.9447405854643889  0.8830384245927854 1.0000   
         C         C         1.0       0.6825786461846074  0.9182035518801189  0.9056827806407326 1.0000   
         C         C         1.0       0.71864953083978    0.9102790881508509  0.9121155011150062 1.0000   
         C         C         1.0       0.7464674294086132  0.9324729260024736  0.9002121401975569 1.0000   
         C         C         1.0       0.7390954168272611  0.9583149841450503  0.8776780008432351 1.0000   
         C         C         1.0       0.7031392259330523  0.9642584940906387  0.8683353731320613 1.0000   
         C         C         1.0       0.6508187232115731  0.8937717268284987  0.9246150185733543 1.0000   
         C         C         1.0       0.6524133168149745  0.8552081118866594  0.9040313073180891 1.0000   
         C         C         1.0       0.6711016949884069  0.8247273071273334  0.9158573910742082 1.0000   
         C         C         1.0       0.669101743668442   0.7897346402381503  0.9015169051524531 1.0000   
         C         C         1.0       0.6474879793264352  0.7861693029518385  0.8747173804178301 1.0000   
         C         C         1.0       0.6387757786297554  0.8191241777518792  0.8593936670374932 1.0000   
         C         C         1.0       0.6421172737869107  0.8544722621333358  0.873850625028326  1.0000   
         C         C         1.0       0.6786203503808125  0.9186877577028466  0.9792366296926399 1.0000   
         C         C         1.0       0.6817199182880644  0.9164854591519455  0.010426688060110045         1.0000   
         C         C         1.0       0.6613767947892621  0.8897208481551182  0.02701218989736054          1.0000   
         C         C         1.0       0.6492047262368295  0.860299358370439   0.011616207646967247         1.0000   
         C         C         1.0       0.6426672737518393  0.8632149725678474  0.9812507670235919 1.0000   
         C         C         1.0       0.6580411271925546  0.891785972906057   0.9627156116237966 1.0000   
         C         C         1.0       0.6552796079307576  0.8902893201741053  0.06547665559371563          1.0000   
         C         C         1.0       0.7551318469064959  0.8367112227755008  0.10039306453279216          1.0000   
         C         C         1.0       0.7539705850546596  0.8738540055306292  0.09399252517556356          1.0000   
         C         C         1.0       0.7243595453840637  0.8901451614876604  0.08017153056211912          1.0000   
         C         C         1.0       0.692444024220791   0.8703875814303613  0.0763218853988672 1.0000   
         C         C         1.0       0.6940739166813471  0.8316761327206431  0.08105120014919964          1.0000   
         C         C         1.0       0.7248182725831429  0.8155739055115457  0.09171951847622895          1.0000   
         C         C         1.0       0.616920681331554   0.8702866459456294  0.07715841255538392          1.0000   
         C         C         1.0       0.585546360644566   0.8765590951445588  0.058760898163596975         1.0000   
         C         C         1.0       0.55186207166945    0.8597066654407343  0.06463380963953715          1.0000   
         C         C         1.0       0.5492791540229499  0.8343972611717796  0.08786375633210142          1.0000   
         C         C         1.0       0.5784767774770431  0.83012633014733    0.10873917536074697          1.0000   
         C         C         1.0       0.6114451102950013  0.8479501746000333  0.10441841099238318          1.0000   
         C         C         1.0       0.6547945410151303  0.9420396805552828  0.11116950438393407          1.0000   
         C         C         1.0       0.6470044431200622  0.9778480996965291  0.12160972155342585          1.0000   
         C         C         1.0       0.6323180738754995  0.0052372011426695675        0.10319164663855918          1.0000   
         C         C         1.0       0.6233090937114008  0.99555318937635    0.07345352546225281          1.0000   
         C         C         1.0       0.6300864334721611  0.9584610733927675  0.061971678535233776         1.0000   
         C         C         1.0       0.6474709360972232  0.9321565163647559  0.08000880083434604          1.0000   
         H         H         1.0       0.6475368015212216  0.9473671376219228  0.8732265012319737 1.0000   
         H         H         1.0       0.7245463826800207  0.8912134907349614  0.9295184283253219 1.0000   
         H         H         1.0       0.7731259786813458  0.9286227043632712  0.9072747265187657 1.0000   
         H         H         1.0       0.7001254167114602  0.9857334581298505  0.8508316728795263 1.0000   
         H         H         1.0       0.6851084038206176  0.8242816225446565  0.937638595664151  1.0000   
         H         H         1.0       0.6773014085719852  0.7647747977804348  0.9134482310786736 1.0000   
         H         H         1.0       0.6276168942876434  0.8178439789877191  0.8351561217732235 1.0000   
         H         H         1.0       0.6305215799885187  0.8813921817920269  0.8645958132513937 1.0000   
         H         H         1.0       0.6877584564816482  0.9438805911977683  0.9701537532559279 1.0000   
         H         H         1.0       0.6984048785813386  0.937490948343801   0.02208114754835111          1.0000   
         H         H         1.0       0.6376156769444976  0.8383826658736016  0.024767646931354026         1.0000   
         H         H         1.0       0.621186718930239   0.8454028087302097  0.9711891647667025 1.0000   
         H         H         1.0       0.7780637642968342  0.8910641723082356  0.09994588432009964          1.0000   
         H         H         1.0       0.7278119635482363  0.9188662429388441  0.070588174181919  1.0000   
         H         H         1.0       0.6689693195459243  0.8155909450064044  0.0751346671688351 1.0000   
         H         H         1.0       0.7234738172614108  0.7861542787309141  0.09594958833657552          1.0000   
         H         H         1.0       0.5864384431316674  0.89700250528254    0.04095297805074005          1.0000   
         H         H         1.0       0.5295082296216831  0.8647809071311165  0.0456295365338093 1.0000   
         H         H         1.0       0.5746632670242123  0.806956887133728   0.1256995601547252 1.0000   
         H         H         1.0       0.6347107677123396  0.8427803766235191  0.11872263478630517          1.0000   
         H         H         1.0       0.6640826436952726  0.9238915494131429  0.1281027915466801 1.0000   
         H         H         1.0       0.6523984093427942  0.9856602781569734  0.14646590015977576          1.0000   
         H         H         1.0       0.6122647764768379  0.01780222493609407           0.05883440196358203          1.0000   
         H         H         1.0       0.6190004414040423  0.9498710713143539  0.039831924017121656         1.0000   
         C         C         1.0       0.9432385616572692  0.5692588577465478  0.33460473478632946          1.0000   
         C         C         1.0       0.9397940758110174  0.559891788328342   0.3037043294197712 1.0000   
         C         C         1.0       0.9185635857063956  0.5804564583618266  0.28387616171783514          1.0000   
         C         C         1.0       0.8985909029279325  0.6112667941349499  0.29546236434111645          1.0000   
         C         C         1.0       0.9094278044559752  0.6254074317884378  0.32484538011745945          1.0000   
         C         C         1.0       0.9294001106088043  0.6022715967306197  0.345241034330773  1.0000   
         H         H         1.0       0.948250983530537   0.532937548197051   0.29289489357181175          1.0000   
         H         H         1.0       0.9160775851361794  0.5689559440091596  0.2597469542495204 1.0000   
         H         H         1.0       0.8966957374457766  0.6516593994636376  0.3343049375421188 1.0000   
         H         H         1.0       0.9364486847060354  0.6121054062346607  0.36922108168505746          1.0000   
         C         C         1.0       0.8198923131214448  0.6410415593021878  0.3186098762011414 1.0000   
         C         C         1.0       0.8318966166436161  0.6496954193254595  0.28883168336149284          1.0000   
         C         C         1.0       0.8086775166755472  0.6714849098636596  0.26936636000845693          1.0000   
         C         C         1.0       0.7755967947343263  0.6850941113988507  0.2813372418433062 1.0000   
         C         C         1.0       0.7659318812675947  0.6768628940401257  0.3119167453099986 1.0000   
         C         C         1.0       0.7888196005673076  0.6564261909012155  0.3302477637532212 1.0000   
         C         C         1.0       0.867872152707732   0.6290158539617049  0.274152033828823  1.0000   
         C         C         1.0       0.8465743607116032  0.5998417231125649  0.2532775836251263 1.0000   
         C         C         1.0       0.8334742954154469  0.6069009990689944  0.22267575749998042          1.0000   
         C         C         1.0       0.8083608214692003  0.5845989836966303  0.20849762435826774          1.0000   
         C         C         1.0       0.7973751088103462  0.5498409916024826  0.2213432542027289 1.0000   
         C         C         1.0       0.8120748812299486  0.5402672244008973  0.250433819907818  1.0000   
         C         C         1.0       0.8363183394752083  0.5644332637167403  0.2664322091316717 1.0000   
         C         C         1.0       0.9013751600551599  0.6923938363339421  0.2718042169535826 1.0000   
         C         C         1.0       0.9220043273456876  0.718517799756942   0.25911839489250654          1.0000   
         C         C         1.0       0.9350810651322677  0.7156772328710206  0.2287156334712094 1.0000   
         C         C         1.0       0.9288363742685495  0.6824824717456527  0.21317507452973858          1.0000   
         C         C         1.0       0.906909561544171   0.6551015711869299  0.22476595109711298          1.0000   
         C         C         1.0       0.8939645247697608  0.65892888772305    0.256025234121245  1.0000   
         C         C         1.0       0.9548140805056949  0.7524191780436031  0.21184657074544477          1.0000   
         C         C         1.0       0.8483601580278253  0.8099979303638408  0.2083159256010752 1.0000   
         C         C         1.0       0.8745379098993905  0.8216418419529925  0.22962746299072276          1.0000   
         C         C         1.0       0.9098048306937618  0.8060080804764956  0.2308544654660993 1.0000   
         C         C         1.0       0.9184169681207657  0.7784302221415953  0.20947450089655859          1.0000   
         C         C         1.0       0.8922474078224947  0.766412181752259   0.18797712428692634          1.0000   
         C         C         1.0       0.859268663544896   0.7842193277520052  0.18684773416940334          1.0000   
         C         C         1.0       0.9768473519425344  0.7398265913424633  0.18136136238913184          1.0000   
         C         C         1.0       0.0029619319394753596         0.7117097714980591 0.1826941364112322 1.0000   
         C         C         1.0       0.015429213702663924          0.6948983644106573 0.15711144403824465          1.0000   
         C         C         1.0       0.007175970447840907          0.708777851258732  0.12799145790840652          1.0000   
         C         C         1.0       0.9834295899385308  0.7376654709285941  0.12524977338071377          1.0000   
         C         C         1.0       0.967624861451191   0.753400403204293   0.15128612815862624          1.0000   
         C         C         1.0       0.996779516082653   0.8118589338862047  0.2266288230796403 1.0000   
         C         C         1.0       0.025083363593334962          0.8278478662387841 0.24471053026822848          1.0000   
         C         C         1.0       0.04290891069432923           0.8073708394500604 0.2668354941176592 1.0000   
         C         C         1.0       0.0330545670679081  0.7711319908638039  0.27115352274574095          1.0000   
         C         C         1.0       0.006925420901340074          0.7545497657127891 0.25292415543859625          1.0000   
         C         C         1.0       0.9867883876132602  0.7734422869244291  0.2315240322962524 1.0000   
         H         H         1.0       0.8336866196963575  0.6236999005738851  0.3357439845260269 1.0000   
         H         H         1.0       0.8171076220765251  0.6793379484524544  0.24618623815458524          1.0000   
         H         H         1.0       0.7593337202354952  0.7023333138413154  0.26689068071208055          1.0000   
         H         H         1.0       0.7771421781079488  0.6437215588634653  0.3521616760687064 1.0000   
         H         H         1.0       0.8349201959260004  0.6329929823307688  0.21101125080544014          1.0000   
         H         H         1.0       0.7975209842909259  0.5922432908871453  0.18635223417442656          1.0000   
         H         H         1.0       0.8084454047012745  0.5135046280128881  0.26108249457557997          1.0000   
         H         H         1.0       0.8459871742727519  0.5566907210376429  0.28921424259330747          1.0000   
         H         H         1.0       0.8913543700137084  0.696839047690603   0.29451772500401613          1.0000   
         H         H         1.0       0.9262750843385582  0.746352375178687   0.27095952672732865          1.0000   
         H         H         1.0       0.9372658139142191  0.6795299372945552  0.18881967806548428          1.0000   
         H         H         1.0       0.9042874673679084  0.6284643194325694  0.21258890386909995          1.0000   
         H         H         1.0       0.8660598242189477  0.8387528963236348  0.24899148701937093          1.0000   
         H         H         1.0       0.9276935819102352  0.8119984996405891  0.2506563750702793 1.0000   
         H         H         1.0       0.8948304154232554  0.7436094799073601  0.17181429252293562          1.0000   
         H         H         1.0       0.8369165059688023  0.775504815178747   0.17011845485055763          1.0000   
         H         H         1.0       0.009225346412714552          0.6978230889124405 0.20551445729552595          1.0000   
         H         H         1.0       0.03085770204645777           0.669786095386999  0.1617661555548746 1.0000   
         H         H         1.0       0.9787382518555113  0.7482889428791581  0.10264534040672954          1.0000   
         H         H         1.0       0.9471533038505742  0.7741153918240172  0.14858093053410817          1.0000   
         H         H         1.0       0.9829784410899528  0.8300909656117328  0.21016168245673655          1.0000   
         H         H         1.0       0.03345032481706545           0.8565345908021419 0.24120657498056422          1.0000   
         H         H         1.0       0.045315214513647284          0.7539281372244234 0.29003703510047385          1.0000   
         H         H         1.0       0.0025774788809225235         0.7255487522331497 0.2551806445869521 1.0000   
         C         C         1.0       0.942923859908477   0.7063979168441957  0.9431623118119975 1.0000   
         C         C         1.0       0.9087698735505565  0.7146423758226308  0.9334860206918681 1.0000   
         C         C         1.0       0.886113558167207   0.6863032289289485  0.9248324621807776 1.0000   
         C         C         1.0       0.8965375103148979  0.6484290044130793  0.9280732145209409 1.0000   
         C         C         1.0       0.9323608102260231  0.6406552817001224  0.9370931025618789 1.0000   
         C         C         1.0       0.9550061774359885  0.6695300329100392  0.9446719607923372 1.0000   
         H         H         1.0       0.8978289764545317  0.7428473153666518  0.9339004224826294 1.0000   
         H         H         1.0       0.8594703402573624  0.6964385607180055  0.921266802458316  1.0000   
         H         H         1.0       0.9395359056039172  0.614202471491411   0.9442929801391531 1.0000   
         H         H         1.0       0.9800982094280215  0.6629065495132214  0.9573596928544235 1.0000   
         C         C         1.0       0.9003241445208274  0.577211986870169   0.8889863494544951 1.0000   
         C         C         1.0       0.8772115548090132  0.580764142947352   0.9139372571692924 1.0000   
         C         C         1.0       0.8644888795182338  0.5471551048816886  0.9278432454268855 1.0000   
         C         C         1.0       0.8779897965240433  0.5128830011563601  0.9183682536389564 1.0000   
         C         C         1.0       0.9034811185718294  0.5089509406996191  0.8923088366035583 1.0000   
         C         C         1.0       0.9148957763252745  0.5424904696200084  0.8792037584412254 1.0000   
         C         C         1.0       0.8639373996494077  0.6185482779036626  0.9299808060082908 1.0000   
         C         C         1.0       0.8288688955543607  0.6260935104134981  0.9069084445196429 1.0000   
         C         C         1.0       0.7945862140401897  0.616194818999117   0.9168196837841496 1.0000   
         C         C         1.0       0.7663683535364546  0.6213354554297896  0.8969565997474934 1.0000   
         C         C         1.0       0.7711213980894686  0.6392151451684768  0.8682017023552799 1.0000   
         C         C         1.0       0.8050173593947311  0.6479719288965944  0.8578235825020557 1.0000   
         C         C         1.0       0.8349904320621541  0.6420124501724839  0.8767548119564836 1.0000   
         C         C         1.0       0.8674928050076409  0.5972562722595502  0.9883930879972839 1.0000   
         C         C         1.0       0.8672353770908006  0.6067801193534099  0.019570910286074827         1.0000   
         C         C         1.0       0.847634478810823   0.63750607903999    0.03046637581452183          1.0000   
         C         C         1.0       0.825629984620138   0.6555251856661691  0.008880022864308224         1.0000   
         C         C         1.0       0.8297754070752427  0.6476516429504012  0.9769229084237496 1.0000   
         C         C         1.0       0.8533493354284971  0.620634900065535   0.9670571499213731 1.0000   
         C         C         1.0       0.8510520115544512  0.6520434440375054  0.06679176436234924          1.0000   
         C         C         1.0       0.7690214633568665  0.5709549888878902  0.10200186509786884          1.0000   
         C         C         1.0       0.8068234370576597  0.5663193910679951  0.10771351786305611          1.0000   
         C         C         1.0       0.8319293312379329  0.5908583966973598  0.09589975308885991          1.0000   
         C         C         1.0       0.8220924403681945  0.6256435597094899  0.08395150566363063          1.0000   
         C         C         1.0       0.7844415389597562  0.6323829072928258  0.08147049872014   1.0000   
         C         C         1.0       0.757533513692058   0.6062389213315259  0.08973304273147731          1.0000   
         C         C         1.0       0.844085619569436   0.6947109806900332  0.07424534244656657          1.0000   
         C         C         1.0       0.8532735560367435  0.7250951944750688  0.054802507787787835         1.0000   
         C         C         1.0       0.8459235505484854  0.7625801916249764  0.062079707582058725         1.0000   
         C         C         1.0       0.8294549502026842  0.7722650378521569  0.09052970923775928          1.0000   
         C         C         1.0       0.8200025192551645  0.7431157226090236  0.11016428037986731          1.0000   
         C         C         1.0       0.8289532303429179  0.7051947345428645  0.10260895619303548          1.0000   
         C         C         1.0       0.9068588740159245  0.6443510734494138  0.10555668058750094          1.0000   
         C         C         1.0       0.9436005318665667  0.6398055567458971  0.11021666067133165          1.0000   
         C         C         1.0       0.9701427722974425  0.6491489885371173  0.0873467796901144 1.0000   
         C         C         1.0       0.9565549040949224  0.6563243478847838  0.05907294433703903          1.0000   
         C         C         1.0       0.9205912773106516  0.659947896391739   0.052735844896751656         1.0000   
         C         C         1.0       0.8949604538789051  0.6501934851539354  0.07602383887128461          1.0000   
         H         H         1.0       0.9073006122009274  0.599999106569683   0.8772975913619716 1.0000   
         H         H         1.0       0.8434846211327154  0.5487287602020662  0.9461230074369525 1.0000   
         H         H         1.0       0.8649463080393761  0.4880039971250648  0.9276148201586164 1.0000   
         H         H         1.0       0.9317740060891292  0.5424500002138148  0.8581835218920103 1.0000   
         H         H         1.0       0.7912746136322242  0.6005706291445934  0.9368922297281234 1.0000   
         H         H         1.0       0.7394957453704027  0.6089574046732023  0.9032617473213266 1.0000   
         H         H         1.0       0.8080877931242942  0.6612413750982866  0.8354525284317198 1.0000   
         H         H         1.0       0.8618057512672535  0.6503200107295832  0.8704773696975805 1.0000   
         H         H         1.0       0.8839451095955313  0.5735213934542832  0.9800567184315164 1.0000   
         H         H         1.0       0.8863089737048055  0.5911590532932024  0.03333933829973912          1.0000   
         H         H         1.0       0.8075464905923195  0.6785737574701411  0.017453861077634913         1.0000   
         H         H         1.0       0.8154050209102891  0.6650926510420295  0.9608138188249619 1.0000   
         H         H         1.0       0.8131585343025782  0.540520813847418   0.11845281028911232          1.0000   
         H         H         1.0       0.8597497600931929  0.5829900994449033  0.0948710262774053 1.0000   
         H         H         1.0       0.7737153789735862  0.657969305213385   0.07107374704068459          1.0000   
         H         H         1.0       0.7295186926693301  0.6145006678268817  0.08527640375183698          1.0000   
         H         H         1.0       0.8671055366611647  0.7215943460363388  0.03199272207252646          1.0000   
         H         H         1.0       0.8575074975788282  0.7836178043950116  0.046342493804675255         1.0000   
         H         H         1.0       0.8034847130766745  0.7467922177232209  0.13057422418522474          1.0000   
         H         H         1.0       0.820861143268116   0.6847552612018376  0.12035753767889604          1.0000   
         H         H         1.0       0.8883720687015333  0.6405753370826458  0.1262143246041325 1.0000   
         H         H         1.0       0.9519099365000602  0.6337292653118695  0.13563050108986693          1.0000   
         H         H         1.0       0.975133607181636   0.6589153417858613  0.03927727831980299          1.0000   
         H         H         1.0       0.9117640074681823  0.6700624452200372  0.029461659102923754         1.0000   
         C         C         1.0       0.5478815588712257  0.33158725465345346           0.3428012339298731 1.0000   
         C         C         1.0       0.5393539691393481  0.33489549491138315           0.3107793641542349 1.0000   
         C         C         1.0       0.552152123493984   0.3640421387755611  0.29333903579250636          1.0000   
         C         C         1.0       0.5730297411621529  0.39273021160642796           0.30714299900925013          1.0000   
         C         C         1.0       0.5807674673433169  0.38958247204395074           0.3387189327438697 1.0000   
         C         C         1.0       0.569890390245687   0.359445748834605   0.35618313151185443          1.0000   
         H         H         1.0       0.5184264507941544  0.3159993182021356  0.3012382576036873 1.0000   
         H         H         1.0       0.5430025968004094  0.3642759364358028  0.26898649047512124          1.0000   
         H         H         1.0       0.5991540152755082  0.40882265040011556           0.35131776685506333          1.0000   
         H         H         1.0       0.5777461780965506  0.357155001396168   0.3798454458334985 1.0000   
         C         C         1.0       0.5899742596475893  0.47769397247088335           0.3331081530627608 1.0000   
         C         C         1.0       0.6038340751937529  0.4639757951252049  0.3047240595954981 1.0000   
         C         C         1.0       0.6268392710634517  0.48758988755449784           0.28629551059138236          1.0000   
         C         C         1.0       0.6360529356245695  0.5223685843615096  0.2972350836859863 1.0000   
         C         C         1.0       0.6227515277620678  0.5368000085311726  0.32595811844327527          1.0000   
         C         C         1.0       0.6001423390750564  0.5123586140324501  0.3436456579116003 1.0000   
         C         C         1.0       0.5878254702997289  0.4282768467445399  0.28841030790447225          1.0000   
         C         C         1.0       0.5542987468636862  0.44487473953422746           0.2707938409561733 1.0000   
         C         C         1.0       0.5561702090161555  0.45771312897643623           0.24015996347149454          1.0000   
         C         C         1.0       0.5271598020595172  0.47405409217028527           0.2257028763583193 1.0000   
         C         C         1.0       0.49203564126248783           0.4748526878475753 0.2397703613475371 1.0000   
         C         C         1.0       0.48978255518955205           0.4621709689591454 0.2707956122698534 1.0000   
         C         C         1.0       0.5199356689859571  0.4481572368888687  0.2859301231278332 1.0000   
         C         C         1.0       0.6515248595931955  0.3953777440061237  0.28796550373810137          1.0000   
         C         C         1.0       0.6808106975321666  0.3780246371966272  0.2725821064356129 1.0000   
         C         C         1.0       0.67962890888942    0.36418211085408164           0.24253107960844872          1.0000   
         C         C         1.0       0.6482676195090807  0.3736710659352709  0.2249723739277256 1.0000   
         C         C         1.0       0.6192265376054216  0.392758761645941   0.2379577992223594 1.0000   
         C         C         1.0       0.6208204714394691  0.40568967928005495           0.27026903129730495          1.0000   
         C         C         1.0       0.7151757640296024  0.3451226555121299  0.2273596312423316 1.0000   
         C         C         1.0       0.7772504637039618  0.44809975987623774           0.20296894623018513          1.0000   
         C         C         1.0       0.7782516636442113  0.43500559468485694           0.2333911784072784 1.0000   
         C         C         1.0       0.7631776674465758  0.4006167529338584  0.24136145026655392          1.0000   
         C         C         1.0       0.7375730985758846  0.38365872138613877           0.22054665591667744          1.0000   
         C         C         1.0       0.7324992207125766  0.40187592797458416           0.1921797028580107 1.0000   
         C         C         1.0       0.7506429646322109  0.4328262009408226  0.18410673800043256          1.0000   
         C         C         1.0       0.7075253312489393  0.3194681630726892  0.19870703366525103          1.0000   
         C         C         1.0       0.6788981615241453  0.2946590905977216  0.19678386089252328          1.0000   
         C         C         1.0       0.674044936023532   0.2718667926228281  0.17015136570362033          1.0000   
         C         C         1.0       0.6956839104271278  0.2761272525168425  0.1441935584863369 1.0000   
         C         C         1.0       0.7249822100565855  0.29972572940180586           0.14598953345444637          1.0000   
         C         C         1.0       0.7334691053790685  0.3185323759834779  0.17353542121170887          1.0000   
         C         C         1.0       0.7708328114700628  0.3095297391832086  0.24632965658623387          1.0000   
         C         C         1.0       0.7886163590099438  0.28302303925483346           0.26562679584127824          1.0000   
         C         C         1.0       0.7693540275852824  0.26150744049103763           0.2865386480673671 1.0000   
         C         C         1.0       0.7317139097772866  0.2690195074890456  0.29061855591554503          1.0000   
         C         C         1.0       0.7151754054372123  0.2945030531447038  0.2712595432681374 1.0000   
         C         C         1.0       0.7335174647065746  0.3144733061094484  0.24887760010981363          1.0000   
         H         H         1.0       0.5720683815697181  0.4601960963274742  0.3469978069329832 1.0000   
         H         H         1.0       0.6358229629823315  0.47967878123045105           0.2648063411703089 1.0000   
         H         H         1.0       0.6576987812289949  0.5389001113822705  0.28819032610344064          1.0000   
         H         H         1.0       0.5910775320001392  0.5218409630755619  0.36549654850254154          1.0000   
         H         H         1.0       0.5817366125813564  0.45724859025340714           0.22865215645853065          1.0000   
         H         H         1.0       0.5296685973543409  0.4851080772695495  0.20200795150443568          1.0000   
         H         H         1.0       0.46507501917868127           0.46955555376552777          0.28484587392450766          1.0000   
         H         H         1.0       0.5170356537004744  0.4416045788135828  0.31035664326780454          1.0000   
         H         H         1.0       0.6579397664411628  0.40349891636565816           0.31176410430916646          1.0000   
         H         H         1.0       0.7067223416431043  0.3717691772219948  0.28652701323465585          1.0000   
         H         H         1.0       0.6466286799261166  0.36365372414169134           0.20124808244886205          1.0000   
         H         H         1.0       0.5958115568518131  0.3945210961563365  0.22274884454061947          1.0000   
         H         H         1.0       0.794158181077928   0.4496308148026742  0.2512875878051557 1.0000   
         H         H         1.0       0.7653688484900742  0.39076340723323416           0.2646422179100371 1.0000   
         H         H         1.0       0.7122563287689812  0.3917886806496884  0.17398436423003916          1.0000   
         H         H         1.0       0.742835139966993   0.44574744671314764           0.16148031304220156          1.0000   
         H         H         1.0       0.6594386462148666  0.29182249994957454           0.21571630086987859          1.0000   
         H         H         1.0       0.6522812632779195  0.25130346766166156           0.16808369700049733          1.0000   
         H         H         1.0       0.745866085864505   0.3067046947626645  0.12641999497796355          1.0000   
         H         H         1.0       0.7567974147725279  0.33701329065541596           0.17507387398092739          1.0000   
         H         H         1.0       0.7862104005979584  0.3231748852370615  0.2263671865643617 1.0000   
         H         H         1.0       0.8148739650857089  0.27305204106654624           0.25777946690012615          1.0000   
         H         H         1.0       0.7156777671904022  0.2548666992236537  0.30861033283001194          1.0000   
         H         H         1.0       0.6841203478157921  0.2981356119379846  0.27280276769740586          1.0000   
         C         C         1.0       0.7258668352033031  0.3708381381275931  0.9464861215888571 1.0000   
         C         C         1.0       0.7189831359822637  0.408890536696335   0.9430702143880778 1.0000   
         C         C         1.0       0.6830974323570906  0.4217749994283626  0.9384803705170067 1.0000   
         C         C         1.0       0.6542163187943185  0.39745593233110516           0.9394415977590862 1.0000   
         C         C         1.0       0.6624896289142825  0.35889452518910947           0.9425703099966616 1.0000   
         C         C         1.0       0.6989499522011001  0.3447639261963318  0.9444818581585905 1.0000   
         H         H         1.0       0.7414548573822849  0.42739713679099794           0.9479970920857691 1.0000   
         H         H         1.0       0.6804912942380827  0.4504146480506263  0.9317465728412285 1.0000   
         H         H         1.0       0.641577614714385   0.3359946285542238  0.9408749720448887 1.0000   
         H         H         1.0       0.706287420706296   0.31592775929625116           0.9467454045356593 1.0000   
         C         C         1.0       0.5979443388423658  0.3644738717990941  0.8915319880635404 1.0000   
         C         C         1.0       0.5856889266232591  0.385022834329984   0.9162273797668304 1.0000   
         C         C         1.0       0.5484697927893043  0.3861549437796423  0.9233573263639117 1.0000   
         C         C         1.0       0.5237902647025834  0.3673683241520987  0.9047446569802015 1.0000   
         C         C         1.0       0.5361174349192463  0.3494634091162644  0.8777728615511182 1.0000   
         C         C         1.0       0.5735444709669636  0.3474577006064143  0.8720295258963034 1.0000   
         C         C         1.0       0.6124165593329313  0.4114682995266682  0.9334197876981057 1.0000   
         C         C         1.0       0.6100806144977433  0.4496672929367654  0.9118603655129118 1.0000   
         C         C         1.0       0.5874786359774539  0.48162651888994473           0.9196452866335334 1.0000   
         C         C         1.0       0.5924072612106024  0.5163522511708197  0.903367059984914  1.0000   
         C         C         1.0       0.6154735421715244  0.5160596862147863  0.8769922678228979 1.0000   
         C         C         1.0       0.6302269219551074  0.48271844549758935           0.8660766991553126 1.0000   
         C         C         1.0       0.6293586767514339  0.4506061839420599  0.8837189781742825 1.0000   
         C         C         1.0       0.5848762296414143  0.38998028507039195           0.9881387484999187 1.0000   
         C         C         1.0       0.5832965545997084  0.391019742504196   0.02087460066545277          1.0000   
         C         C         1.0       0.600097222142543   0.4223393447842933  0.03598081088077576          1.0000   
         C         C         1.0       0.6120470796720182  0.4523391458764928  0.01882348766294828          1.0000   
         C         C         1.0       0.6101772738608258  0.4504548610012521  0.9865986474793199 1.0000   
         C         C         1.0       0.6018103311617417  0.4161270893279358  0.9708206185628611 1.0000   
         C         C         1.0       0.6118150794903224  0.4186438491586793  0.07293163825334494          1.0000   
         C         C         1.0       0.5064483890931707  0.46602976141861713           0.10693193475189709          1.0000   
         C         C         1.0       0.5116156944245356  0.42803762222336794           0.10411596784459783          1.0000   
         C         C         1.0       0.5444668876922782  0.41316255938106616           0.09375210113782506          1.0000   
         C         C         1.0       0.5740846798236346  0.43589129982248925           0.08780537882724417          1.0000   
         C         C         1.0       0.5682402426553229  0.4747565539527032  0.08930240227679388          1.0000   
         C         C         1.0       0.5353148636945111  0.4899818055488673  0.09823207443149637          1.0000   
         C         C         1.0       0.6472477987356559  0.4413476147581654  0.07942391173440289          1.0000   
         C         C         1.0       0.6787288928364165  0.43998948745376587           0.05912781160844772          1.0000   
         C         C         1.0       0.7111790876154348  0.4562941116067     0.06813659106836889          1.0000   
         C         C         1.0       0.7155334764799869  0.47460274509030714           0.09669139743558432          1.0000   
         C         C         1.0       0.6852766657568925  0.47470975355431516           0.11701978910050376          1.0000   
         C         C         1.0       0.6524290476393064  0.4586700911255037  0.10884033997852154          1.0000   
         C         C         1.0       0.6140424548120879  0.3624970595329109  0.11237233505652953          1.0000   
         C         C         1.0       0.6211152278823091  0.32467479800526683           0.11887441091334308          1.0000   
         C         C         1.0       0.6382517397351712  0.30281919881981023           0.097000153592586  1.0000   
         C         C         1.0       0.6489215812420954  0.31774608219754497           0.06935969849120305          1.0000   
         C         C         1.0       0.6417932524161787  0.3541309609517057  0.06257381807823538          1.0000   
         C         C         1.0       0.624399579896465   0.3774304502147211  0.08403275429045243          1.0000   
         H         H         1.0       0.6278295509034659  0.36188531945864666           0.8865078884519507 1.0000   
         H         H         1.0       0.5360833712601114  0.4071988459835529  0.9394941309764598 1.0000   
         H         H         1.0       0.4949987297075852  0.37208711616547213           0.9079371102277739 1.0000   
         H         H         1.0       0.5831192284801786  0.33092304114675225           0.851737235496081  1.0000   
         H         H         1.0       0.574505466391551   0.48176919148026087           0.9422474622400854 1.0000   
         H         H         1.0       0.5811210336143874  0.5418668205395701  0.9140154615783356 1.0000   
         H         H         1.0       0.6478306932014778  0.4847990274266289  0.8430442504591574 1.0000   
         H         H         1.0       0.6449673075828007  0.426814484883896   0.8752253932519879 1.0000   
         H         H         1.0       0.5733683033811777  0.36453929494421405           0.9763248016904255 1.0000   
         H         H         1.0       0.5686874237983378  0.3670736727557466  0.032300005554182665         1.0000   
         H         H         1.0       0.6276173279517632  0.47444526093790135           0.02809252421361208          1.0000   
         H         H         1.0       0.6244150773664522  0.4724772484194672  0.974366442572225  1.0000   
         H         H         1.0       0.489994977992758   0.4103531921376915  0.10946233581417283          1.0000   
         H         H         1.0       0.5485153289387542  0.3823141026758284  0.09095302108307668          1.0000   
         H         H         1.0       0.5893062384572525  0.4958556437127127  0.0823870719651949 1.0000   
         H         H         1.0       0.5331156410542888  0.5212904899176594  0.0998088641907189 1.0000   
         H         H         1.0       0.6777522465999206  0.4254738135700677  0.03683726677472876          1.0000   
         H         H         1.0       0.7359833099828802  0.4549659274534841  0.05258555800250054          1.0000   
         H         H         1.0       0.6863860198927795  0.48870951293645265           0.14027549031740924          1.0000   
         H         H         1.0       0.6295203796326663  0.4592484032447571  0.12698498133754255          1.0000   
         H         H         1.0       0.604296779732272   0.38085604307555654           0.13021943007835834          1.0000   
         H         H         1.0       0.6136260467505567  0.3157749996463354  0.1416319100911584 1.0000   
         H         H         1.0       0.6639956193987661  0.300131404835249   0.05442944088861635          1.0000   
         H         H         1.0       0.6521214243064497  0.3671447768765096  0.04272258156482245          1.0000   
         C         C         1.0       0.3165007968375419  0.7359456977025362  0.32642535784094107          1.0000   
         C         C         1.0       0.31021511619543396           0.7390737019224698 0.2953750144000092 1.0000   
         C         C         1.0       0.3310142018275868  0.7163159648356096  0.2744260417684457 1.0000   
         C         C         1.0       0.3564898476947335  0.6895514484476576  0.2860097673381598 1.0000   
         C         C         1.0       0.3554604250696786  0.6826733912220357  0.31789102877598235          1.0000   
         C         C         1.0       0.3374813739823494  0.7077113624753971  0.33831152051744906          1.0000   
         H         H         1.0       0.2936088958311489  0.7614024281739991  0.2861273402537604 1.0000   
         H         H         1.0       0.3312660775990126  0.7204078536807088  0.2501850266450019 1.0000   
         H         H         1.0       0.37191994911770815           0.6624952353558319 0.32886389019520573          1.0000   
         H         H         1.0       0.34528140846065186           0.7095604153782995 0.3632730192628027 1.0000   
         C         C         1.0       0.436508477987055   0.6605752609761384  0.3037714640574839 1.0000   
         C         C         1.0       0.41674824381354525           0.6455957656886088 0.27838735419872   1.0000   
         C         C         1.0       0.430370763026712   0.6130302108479134  0.26484143529598697          1.0000   
         C         C         1.0       0.45987941328137494           0.5932309739154619 0.2762597566777426 1.0000   
         C         C         1.0       0.47932278916105925           0.609766555426897  0.2999238107084583 1.0000   
         C         C         1.0       0.4679327334741523  0.6425748504422255  0.3137365621126908 1.0000   
         C         C         1.0       0.3836891142217066  0.667748858921904   0.26225462824440265          1.0000   
         C         C         1.0       0.40507535151577845           0.6972434319366336 0.24205400377595532          1.0000   
         C         C         1.0       0.41717098389311097           0.688744416495634  0.21189523461600276          1.0000   
         C         C         1.0       0.43663913280901334           0.7143225209310167 0.19411551931554633          1.0000   
         C         C         1.0       0.4476332151084471  0.7477735326976857  0.2078832081055947 1.0000   
         C         C         1.0       0.43939159370186315           0.7546099956044698 0.23930928413620786          1.0000   
         C         C         1.0       0.41808911637661417           0.7298049048704335 0.25699992850858167          1.0000   
         C         C         1.0       0.34371513668660764           0.6075071990638542 0.26786271037631465          1.0000   
         C         C         1.0       0.32281748021199913           0.5797521721012058 0.2551232887288105 1.0000   
         C         C         1.0       0.30861098586413854           0.5834284817627163 0.22523831857695464          1.0000   
         C         C         1.0       0.3160456494937992  0.6175516352087282  0.2100510029844236 1.0000   
         C         C         1.0       0.33841624348519483           0.6447381284810954 0.22111356105406854          1.0000   
         C         C         1.0       0.3546002853756036  0.6389987086011031  0.24976172439327923          1.0000   
         C         C         1.0       0.2886957943430781  0.5495835100455463  0.20875245546368443          1.0000   
         C         C         1.0       0.3958186193794582  0.4889763781627568  0.20769214241304132          1.0000   
         C         C         1.0       0.3661097401238826  0.4770686734672563  0.2252195572794507 1.0000   
         C         C         1.0       0.3333738122389729  0.4949266270585246  0.22597407756813104          1.0000   
         C         C         1.0       0.32531814202065085           0.5224251546775595 0.20368233889026421          1.0000   
         C         C         1.0       0.35389789899882623           0.5303998782443342 0.18245331233751996          1.0000   
         C         C         1.0       0.38800908180939225           0.5124946113097645 0.18446459994264575          1.0000   
         C         C         1.0       0.2692907620605444  0.5597740286336866  0.17692182429105674          1.0000   
         C         C         1.0       0.2460826188073004  0.5915899652831215  0.17664593697270561          1.0000   
         C         C         1.0       0.2325411871329378  0.6031650126897057  0.1495911492296586 1.0000   
         C         C         1.0       0.24192927089533717           0.5867858816023346 0.12219859116913843          1.0000   
         C         C         1.0       0.2638307280348271  0.5561633237600949  0.12160980142245484          1.0000   
         C         C         1.0       0.27593879848139835           0.5404806165512674 0.1496001344003412 1.0000   
         C         C         1.0       0.24268232907272108           0.49502780035787086          0.21845294556712905          1.0000   
         C         C         1.0       0.21811807699874133           0.47639946089153773          0.23615338529725938          1.0000   
         C         C         1.0       0.20518248803266223           0.49220146707473217          0.2644249123480681 1.0000   
         C         C         1.0       0.21667957410556113           0.5272909492971849 0.27406574926319627          1.0000   
         C         C         1.0       0.24164574064844552           0.5461518006256518 0.2562271116519438 1.0000   
         C         C         1.0       0.2561306511686266  0.529889681494684   0.22934646730042363          1.0000   
         H         H         1.0       0.4322059363789197  0.6900418190911447  0.3139376400824128 1.0000   
         H         H         1.0       0.41393321501838565           0.6007213794642545 0.246109066685341  1.0000   
         H         H         1.0       0.46509288155896655           0.5670493313835961 0.26607879418938324          1.0000   
         H         H         1.0       0.48378964450199263           0.6547536043050206 0.3326945764049507 1.0000   
         H         H         1.0       0.41233546031987617           0.6609728152306158 0.1995900077313229 1.0000   
         H         H         1.0       0.44293709330590403           0.7081597286692543 0.16995256529328964          1.0000   
         H         H         1.0       0.44689753185418796           0.7788817306581926 0.25057560688455527          1.0000   
         H         H         1.0       0.4139963695271108  0.736597557077925   0.2816499910262926 1.0000   
         H         H         1.0       0.3486845755047504  0.6061983821407071  0.29214988855599894          1.0000   
         H         H         1.0       0.3188372369044633  0.5555635630338578  0.2707039978897536 1.0000   
         H         H         1.0       0.30613663434436295           0.6219334587080863 0.1865080151810391 1.0000   
         H         H         1.0       0.3407316201919092  0.6697882132650507  0.20667286307609906          1.0000   
         H         H         1.0       0.36783609137438805           0.4576907188670717 0.24502499740146017          1.0000   
         H         H         1.0       0.31285352267469513           0.4887916547909089 0.2436931279172738 1.0000   
         H         H         1.0       0.34917920894664944           0.5527964051897921 0.1663724710937674 1.0000   
         H         H         1.0       0.4089501089002474  0.5220841455756923  0.16897540662499932          1.0000   
         H         H         1.0       0.23753998147418132           0.6035694743020644 0.19870156648849804          1.0000   
         H         H         1.0       0.21679299205530037           0.6286879412143085 0.14940622839772463          1.0000   
         H         H         1.0       0.2744905515292621  0.544696313725654   0.0997721661888564 1.0000   
         H         H         1.0       0.29281729127373957           0.5166722947531887 0.14826695305357812          1.0000   
         H         H         1.0       0.2517478947595623  0.48242007213593335           0.19561043183949545          1.0000   
         H         H         1.0       0.20970546050070976           0.45108020292479944          0.22668052049845722          1.0000   
         H         H         1.0       0.20862889362580456           0.5393631657375892 0.29566240200711663          1.0000   
         H         H         1.0       0.25080497816237796           0.5737169975622733 0.2641022899215143 1.0000   
         C         C         1.0       0.3415030532447015  0.571700518621107   0.9525152425711667 1.0000   
         C         C         1.0       0.37471822015090256           0.5656695322904548 0.9383317929781916 1.0000   
         C         C         1.0       0.3926931394130452  0.5942693515553853  0.9234203066010771 1.0000   
         C         C         1.0       0.3787515802245418  0.630953033354598   0.9266195785444268 1.0000   
         C         C         1.0       0.34359161246398284           0.6351638537220313 0.939577891294426  1.0000   
         C         C         1.0       0.32464221504892304           0.6055067517177389 0.9525396032493977 1.0000   
         H         H         1.0       0.38540415961824287           0.5383803083577642 0.9320719330354004 1.0000   
         H         H         1.0       0.4200749937862718  0.5882340704295405  0.9124128357471979 1.0000   
         H         H         1.0       0.3319540046767899  0.6623941495483372  0.9441474031062014 1.0000   
         H         H         1.0       0.2960014427606812  0.6082554380988742  0.9627681891882102 1.0000   
         C         C         1.0       0.35375075606053485           0.7025767236895167 0.8927299465060288 1.0000   
         C         C         1.0       0.3841825419465708  0.7031575092990734  0.9110768207036314 1.0000   
         C         C         1.0       0.3993057096905453  0.737822443879056   0.9177204266778235 1.0000   
         C         C         1.0       0.38322241214137637           0.7709413100151425 0.9093235202498609 1.0000   
         C         C         1.0       0.3527096667993123  0.770106501523062   0.891366957971044  1.0000   
         C         C         1.0       0.33786540395311276           0.7365258948897223 0.8831113698398855 1.0000   
         C         C         1.0       0.4023546859657865  0.6671712327594649  0.9242881929266695 1.0000   
         C         C         1.0       0.43617303871549606           0.6640266709110816 0.8996438659949052 1.0000   
         C         C         1.0       0.470667625109954   0.6766030547610099  0.907579984235336  1.0000   
         C         C         1.0       0.500936121101046   0.6709990244690759  0.8869669203568024 1.0000   
         C         C         1.0       0.4958757986838267  0.6542947179811103  0.8591124612892529 1.0000   
         C         C         1.0       0.461175792008243   0.6419222895982875  0.8496815576051718 1.0000   
         C         C         1.0       0.43170353302244346           0.649424867432998  0.8704672466272776 1.0000   
         C         C         1.0       0.39210513342058106           0.6941557743793219 0.9810056897944255 1.0000   
         C         C         1.0       0.3936648436845109  0.6871144848737476  0.01199703418928344          1.0000   
         C         C         1.0       0.417238782984276   0.6608308057517982  0.02400120849525189          1.0000   
         C         C         1.0       0.4432271490377475  0.6460380599812562  0.0028692458713479585        1.0000   
         C         C         1.0       0.4373741922406896  0.6486163326733633  0.9717203278095847 1.0000   
         C         C         1.0       0.41198823162874065           0.6725134158938245 0.9602812766927936 1.0000   
         C         C         1.0       0.41190808391993255           0.6475092328010198 0.06011407216625453          1.0000   
         C         C         1.0       0.48561491608430923           0.7404005435869366 0.09090070975336052          1.0000   
         C         C         1.0       0.44818693300454004           0.7450300176554117 0.08984969577487535          1.0000   
         C         C         1.0       0.4254014810468123  0.7171144355563428  0.07992680489767756          1.0000   
         C         C         1.0       0.4384617720186464  0.6798648477574333  0.07403339080688509          1.0000   
         C         C         1.0       0.47669209376304716           0.675074172388057  0.07662418154110218          1.0000   
         C         C         1.0       0.5006451155739607  0.70436139397701    0.08417735962882067          1.0000   
         C         C         1.0       0.425597762777356   0.6074296043178257  0.06932195181063228          1.0000   
         C         C         1.0       0.42036839146850224           0.5767319955537576 0.04866468181766126          1.0000   
         C         C         1.0       0.4271733239681814  0.54129490024805    0.05922308471634463          1.0000   
         C         C         1.0       0.43967330029444135           0.5349391425309554 0.08905082722156132          1.0000   
         C         C         1.0       0.43994828304674294           0.5633636715100016 0.11009932682864121          1.0000   
         C         C         1.0       0.4363660245400337  0.5998982821549705  0.10067929394281006          1.0000   
         C         C         1.0       0.356923982075395   0.6577842116446381  0.09942735228856346          1.0000   
         C         C         1.0       0.31997379676530385           0.6589166693072431 0.10618541096690673          1.0000   
         C         C         1.0       0.29405398430408575           0.6462748052752084 0.08421822291353886          1.0000   
         C         C         1.0       0.30585628131843307           0.6342088507165171 0.05535100614061373          1.0000   
         C         C         1.0       0.3433968141216206  0.6326754179008504  0.04868891995513547          1.0000   
         C         C         1.0       0.36901519730724525           0.6464292656513149 0.06964944396080552          1.0000   
         H         H         1.0       0.33976319957286955           0.6759842476225849 0.8877839830487306 1.0000   
         H         H         1.0       0.42366013256790086           0.7404684263269777 0.9324567188148133 1.0000   
         H         H         1.0       0.3964572690194918  0.7978274585316462  0.9131026721743667 1.0000   
         H         H         1.0       0.3138924920995047  0.737643655329724   0.8663475852116233 1.0000   
         H         H         1.0       0.47032575740475735           0.6951552568165394 0.9284223728183858 1.0000   
         H         H         1.0       0.5290150530307327  0.6808158453837063  0.8948497861097809 1.0000   
         H         H         1.0       0.4619680510805577  0.6287271090834894  0.8283580822293702 1.0000   
         H         H         1.0       0.405064283524818   0.637832092618975   0.8637984708825416 1.0000   
         H         H         1.0       0.37045433296110203           0.7137818650818912 0.9721225785616521 1.0000   
         H         H         1.0       0.3715365579232176  0.6999689987596357  0.02495000716442397          1.0000   
         H         H         1.0       0.46322353565729746           0.6254598705911961 0.009617522278072332         1.0000   
         H         H         1.0       0.4558056328644081  0.6319799992016006  0.9563567614777745 1.0000   
         H         H         1.0       0.4373989810157359  0.7724373824578264  0.0949945811102433 1.0000   
         H         H         1.0       0.39666352005507455           0.7247336837745968 0.0770105460673498 1.0000   
         H         H         1.0       0.4891972147559768  0.647897024130094   0.07171132316421991          1.0000   
         H         H         1.0       0.5308941230587351  0.7016623667120511  0.0822298214546644 1.0000   
         H         H         1.0       0.4146173705737811  0.5798946927830722  0.023813987339775577         1.0000   
         H         H         1.0       0.42417358112889375           0.5161610263265666 0.04329957788263439          1.0000   
         H         H         1.0       0.44727733060360353           0.5557941954747285 0.13398136999659993          1.0000   
         H         H         1.0       0.43825234113799355           0.6212520397828007 0.11780637384762846          1.0000   
         H         H         1.0       0.37474730872127815           0.6723158418462777 0.11362653256303958          1.0000   
         H         H         1.0       0.3094300624597293  0.6696589986280995  0.12754496189243772          1.0000   
         H         H         1.0       0.2881962209076404  0.6231468309224667  0.03743873387991292          1.0000   
         H         H         1.0       0.3528820793205453  0.6206959505134655  0.02563930757442101          1.0000   
         C         C         1.0       0.9032240830989304  0.5130128784164982  0.37280877607961727          1.0000   
         C         C         1.0       0.8982656499759928  0.5249355941755075  0.40248038481783943          1.0000   
         C         C         1.0       0.8634532245748876  0.5314731071926517  0.4136330786977904 1.0000   
         C         C         1.0       0.8329623250151666  0.5279466083471717  0.3946117485656827 1.0000   
         C         C         1.0       0.8384503139205544  0.513992634633754   0.3648263344681583 1.0000   
         C         C         1.0       0.8738567726333418  0.5068711326849694  0.35378126314545016          1.0000   
         H         H         1.0       0.9193774604383024  0.532500843225934   0.41701909486570554          1.0000   
         H         H         1.0       0.860544419442657   0.5358527246597363  0.43829237183269776          1.0000   
         H         H         1.0       0.8165270148906143  0.5099955826955639  0.34756907718253677          1.0000   
         H         H         1.0       0.8813673478257316  0.5010270655926355  0.3298031841508844 1.0000   
         C         C         1.0       0.7632792946451759  0.5592744604670647  0.3557788328145547 1.0000   
         C         C         1.0       0.7596662858951176  0.5440762943117196  0.38479394863943883          1.0000   
         C         C         1.0       0.7229454502222811  0.5375539119180565  0.3962012047301376 1.0000   
         C         C         1.0       0.6944375964090544  0.5510997621912707  0.38080397750150724          1.0000   
         C         C         1.0       0.6995553389412945  0.5689001448236897  0.35136293199513463          1.0000   
         C         C         1.0       0.7349377251894781  0.5737366146735496  0.3391300157203673 1.0000   
         C         C         1.0       0.7924625798174342  0.5312445127476766  0.40769219660153966          1.0000   
         C         C         1.0       0.7896618141928878  0.5641313382548905  0.43404794502007255          1.0000   
         C         C         1.0       0.7689026808816319  0.5604240661305596  0.4625098200286268 1.0000   
         C         C         1.0       0.7731833853059817  0.5876561433611868  0.4859982053004809 1.0000   
         C         C         1.0       0.7884359486000717  0.6218343121723023  0.4799104459842601 1.0000   
         C         C         1.0       0.8050041295705014  0.6275297852611348  0.452156070036857  1.0000   
         C         C         1.0       0.8061127421841707  0.5982715303089371  0.4298390033410439 1.0000   
         C         C         1.0       0.765639207168872   0.4646954595362536  0.4066325463281439 1.0000   
         C         C         1.0       0.7560965280091922  0.4307084778788343  0.41915159912137695          1.0000   
         C         C         1.0       0.7635763693034685  0.42270901223851065           0.4508217288285614 1.0000   
         C         C         1.0       0.785355578795687   0.4486332345272112  0.4664502509788872 1.0000   
         C         C         1.0       0.7996699850131781  0.47957034340683014           0.45147769916423525          1.0000   
         C         C         1.0       0.7863967023667472  0.4911004700124269  0.4229648034852847 1.0000   
         C         C         1.0       0.7448791521957946  0.388094572780093   0.4690764170508616 1.0000   
         C         C         1.0       0.6450730371099339  0.4489022462973666  0.4970756516730786 1.0000   
         C         C         1.0       0.64448488206953    0.4226304579945029  0.47419032150851964          1.0000   
         C         C         1.0       0.6758157544941773  0.4033190319158596  0.46509389791763917          1.0000   
         C         C         1.0       0.7097351076593255  0.410833052806514   0.4795585803702508 1.0000   
         C         C         1.0       0.7093544144746413  0.43614663068875453           0.5040161478336663 1.0000   
         C         C         1.0       0.6773393456104049  0.45518381579038497           0.5135961853659048 1.0000   
         C         C         1.0       0.7686069414674129  0.37229569645380883           0.49692076663959694          1.0000   
         C         C         1.0       0.8073666077905781  0.36581209228057154           0.49699919885814875          1.0000   
         C         C         1.0       0.824821517432054   0.35109798475913057           0.5227608128498834 1.0000   
         C         C         1.0       0.8041381745983174  0.3399516373401292  0.5486156016329213 1.0000   
         C         C         1.0       0.7657486745584116  0.34329130549100784           0.5488171766591768 1.0000   
         C         C         1.0       0.7475255702421718  0.36033735859742144           0.5243359366707391 1.0000   
         C         C         1.0       0.7132875222679116  0.3229392204764583  0.463497134696927  1.0000   
         C         C         1.0       0.7092939776601076  0.28681449134567405           0.4517172968121898 1.0000   
         C         C         1.0       0.7372989355867873  0.2747416888134341  0.431847926591636  1.0000   
         C         C         1.0       0.7617990259395233  0.2994905852472714  0.4188249749063934 1.0000   
         C         C         1.0       0.7617300973710666  0.3359269511904057  0.4284191509986874 1.0000   
         C         C         1.0       0.7395773447230264  0.34856194885400654           0.4516492011843898 1.0000   
         H         H         1.0       0.7877463493205553  0.5668366068932255  0.3454378625899649 1.0000   
         H         H         1.0       0.7165777539688241  0.524687760780542   0.418258338547509  1.0000   
         H         H         1.0       0.6674648652532592  0.5494626515523051  0.3933768578989251 1.0000   
         H         H         1.0       0.7406680230637966  0.5883819449392075  0.3192571183469204 1.0000   
         H         H         1.0       0.7527695129386017  0.5365805497643921  0.4687337855110259 1.0000   
         H         H         1.0       0.7576848627370593  0.5849781583562037  0.5074579328054646 1.0000   
         H         H         1.0       0.8202895112237182  0.6533100105863403  0.4464480260006475 1.0000   
         H         H         1.0       0.8188879010721468  0.6035457746801342  0.4084082498521877 1.0000   
         H         H         1.0       0.7581769231840044  0.4727144909878878  0.38327117068172634          1.0000   
         H         H         1.0       0.7417197582519868  0.4115608589954261  0.40264262982406773          1.0000   
         H         H         1.0       0.7955080687202366  0.44443642977044745           0.4895329869615253 1.0000   
         H         H         1.0       0.8194237141546585  0.49584965859699687           0.46480078957443777          1.0000   
         H         H         1.0       0.6200870614976045  0.42067938212150746           0.4607259689926213 1.0000   
         H         H         1.0       0.6720010609129333  0.38445192531861305           0.4442805479605623 1.0000   
         H         H         1.0       0.7344854056635375  0.4440347210694882  0.5142336919433153 1.0000   
         H         H         1.0       0.6777466528227224  0.4784913888753464  0.5285999097346782 1.0000   
         H         H         1.0       0.8249251894255043  0.37219777288540407           0.4781277024604916 1.0000   
         H         H         1.0       0.8536158399683225  0.3467063612072764  0.5219201670818305 1.0000   
         H         H         1.0       0.7498704863624519  0.3325636333727028  0.5683700065670727 1.0000   
         H         H         1.0       0.7166096756743093  0.36312383422899014           0.5263759360412696 1.0000   
         H         H         1.0       0.6894787748512058  0.3309693831827473  0.47652403244653485          1.0000   
         H         H         1.0       0.6905716318975224  0.2665355782977248  0.46231253283491985          1.0000   
         H         H         1.0       0.784213892969066   0.2902892115258988  0.40363873700293545          1.0000   
         H         H         1.0       0.7816241118943833  0.355085783591891   0.4191928934895948 1.0000   
         C         C         1.0       0.700721781150344   0.34840446549100484           0.8272509713278599 1.0000   
         C         C         1.0       0.6827148122307072  0.38110578426716646           0.8319261251414678 1.0000   
         C         C         1.0       0.7004499595803982  0.4140810540378166  0.8238560341509217 1.0000   
         C         C         1.0       0.738024251375446   0.41504073100451716           0.8134952353613016 1.0000   
         C         C         1.0       0.7549872892568202  0.38007052996282725           0.8077947927235029 1.0000   
         C         C         1.0       0.7352256474697315  0.34750003168695204           0.8136041646831751 1.0000   
         H         H         1.0       0.6546417797075381  0.3819309066513147  0.8412717611663627 1.0000   
         H         H         1.0       0.6862681509159858  0.4387591331724728  0.8289543304747722 1.0000   
         H         H         1.0       0.7842914175782619  0.3779557974416665  0.8028338275717866 1.0000   
         H         H         1.0       0.7505735171779024  0.3203251510576288  0.8109177584164345 1.0000   
         C         C         1.0       0.8145856736814443  0.4301523991641896  0.8426881291210867 1.0000   
         C         C         1.0       0.8001561411990938  0.4530685871247877  0.8191537899313064 1.0000   
         C         C         1.0       0.8240899341124739  0.48054351761786285           0.8076043273709406 1.0000   
         C         C         1.0       0.8599408353883536  0.48256800533996336           0.815195964891558  1.0000   
         C         C         1.0       0.8741671367321571  0.45993175386385254           0.8369212493591015 1.0000   
         C         C         1.0       0.8520850783803957  0.43402274140843927           0.8516648122653379 1.0000   
         C         C         1.0       0.7587726009054242  0.4527950250001685  0.8077709228921393 1.0000   
         C         C         1.0       0.7429815729423032  0.4850418894710715  0.82866522868279   1.0000   
         C         C         1.0       0.7345281282813975  0.5201765102081064  0.8156242027172865 1.0000   
         C         C         1.0       0.7117948092998129  0.5450767953343113  0.8319124883640889 1.0000   
         C         C         1.0       0.7040196757764127  0.5382127913029093  0.8631069970190549 1.0000   
         C         C         1.0       0.7195401818088686  0.5084389619759812  0.8783545308808512 1.0000   
         C         C         1.0       0.7378540598447731  0.4810869630017938  0.8612699545905148 1.0000   
         C         C         1.0       0.7847512732976025  0.44093157137989347           0.7497599943530162 1.0000   
         C         C         1.0       0.7822506732253786  0.4443980069910696  0.7173945921317034 1.0000   
         C         C         1.0       0.7530897914644269  0.4602397768359158  0.7024168767043731 1.0000   
         C         C         1.0       0.7263931198537651  0.4752020367893896  0.7212847721331634 1.0000   
         C         C         1.0       0.727382073821185   0.47012746242068537           0.7543088608969942 1.0000   
         C         C         1.0       0.757655182081574   0.45469478243944095           0.7694419037040738 1.0000   
         C         C         1.0       0.7544009067794282  0.4659081196744403  0.6648405685204517 1.0000   
         C         C         1.0       0.7949323985354423  0.5819223613850836  0.6573753074358105 1.0000   
         C         C         1.0       0.8202110759639141  0.552807962543312   0.6597935776001603 1.0000   
         C         C         1.0       0.8081551347419386  0.5164012998999168  0.6622857056081879 1.0000   
         C         C         1.0       0.7695600532592743  0.5084261788606819  0.6626061173919437 1.0000   
         C         C         1.0       0.7455208641004425  0.5381418223850223  0.6628592880561663 1.0000   
         C         C         1.0       0.7577400702545152  0.5739905753719995  0.6588213710609141 1.0000   
         C         C         1.0       0.7146020074356386  0.46075613234110746           0.6481877178156458 1.0000   
         C         C         1.0       0.6893443714558437  0.4363102441044174  0.660875195433022  1.0000   
         C         C         1.0       0.6532623868883826  0.4332668258625932  0.6505531227069022 1.0000   
         C         C         1.0       0.6417360695668938  0.4580522076757348  0.6269441408544818 1.0000   
         C         C         1.0       0.6673607740023663  0.4801613355860168  0.6128779289969037 1.0000   
         C         C         1.0       0.7040336785171711  0.4792661770812658  0.6210850114655198 1.0000   
         C         C         1.0       0.7947312041451392  0.44499122740354    0.6154246677093168 1.0000   
         C         C         1.0       0.8163180489796428  0.41838225109768595           0.599950795025119  1.0000   
         C         C         1.0       0.8172055343592023  0.3822745009938411  0.6112871039861945 1.0000   
         C         C         1.0       0.7953300294514531  0.37191157869179353           0.6354568804965834 1.0000   
         C         C         1.0       0.7776430851865069  0.3990026268447095  0.6531691792650662 1.0000   
         C         C         1.0       0.7769347272260396  0.43622746419015296           0.6447070702272782 1.0000   
         H         H         1.0       0.7979103010390932  0.4106692130333977  0.8512691311013092 1.0000   
         H         H         1.0       0.8150735592685286  0.5045139481662475  0.7940664685699649 1.0000   
         H         H         1.0       0.8786203756930203  0.5021973369344203  0.8041273818843568 1.0000   
         H         H         1.0       0.8642686425498596  0.413792901296612   0.8668457560166595 1.0000   
         H         H         1.0       0.739067531604358   0.5269785411762101  0.7911030553936045 1.0000   
         H         H         1.0       0.7047461995183769  0.57030238933545    0.8181938099855712 1.0000   
         H         H         1.0       0.715274176043513   0.506143526281051   0.9031262242442099 1.0000   
         H         H         1.0       0.7454688121434918  0.4558547960497519  0.8751465728220352 1.0000   
         H         H         1.0       0.8102539088748515  0.43471311207580093           0.7608483919864905 1.0000   
         H         H         1.0       0.8070887958983092  0.4351810616807727  0.7046405004292863 1.0000   
         H         H         1.0       0.7010418687972927  0.48787431762881284           0.7116894065567112 1.0000   
         H         H         1.0       0.7036491505552765  0.4815164124416181  0.7684187700167299 1.0000   
         H         H         1.0       0.850783327968704   0.5591667824807489  0.6627448444706602 1.0000   
         H         H         1.0       0.8281122159968862  0.49422313370282855           0.6623935568142909 1.0000   
         H         H         1.0       0.7150465113371931  0.5332527674251584  0.6640873509884286 1.0000   
         H         H         1.0       0.7395096835490561  0.5953709217663363  0.665844576635175  1.0000   
         H         H         1.0       0.6967130747916233  0.4183944583974382  0.6808696299101261 1.0000   
         H         H         1.0       0.6326211143930519  0.4151817040002715  0.6625025935402143 1.0000   
         H         H         1.0       0.6572286560663163  0.4985660812093044  0.5951807613523633 1.0000   
         H         H         1.0       0.7227063280114264  0.5011224290662769  0.6121198880646185 1.0000   
         H         H         1.0       0.7921580111186728  0.47453312191980457           0.6085054814531979 1.0000   
         H         H         1.0       0.8332991216752655  0.42800866004497196           0.579509120212854  1.0000   
         H         H         1.0       0.7936911536505088  0.34195631621665656           0.6426006048275617 1.0000   
         H         H         1.0       0.7654775713353174  0.3889702622275235  0.6749087182285649 1.0000   
         C         C         1.0       0.7479660149348631  0.9377077444763816  0.3895470272302043 1.0000   
         C         C         1.0       0.7421254464916583  0.9329005400231445  0.4198834515544606 1.0000   
         C         C         1.0       0.7515995219374567  0.9016222685203886  0.43623138114930815          1.0000   
         C         C         1.0       0.7613116308382211  0.868462640776392   0.4183846032612481 1.0000   
         C         C         1.0       0.7714951296916045  0.8745686430023675  0.3883245261848587 1.0000   
         C         C         1.0       0.7595185818394187  0.9069542945412343  0.3726867277749828 1.0000   
         H         H         1.0       0.7289391745423237  0.9555315649374946  0.4325319280071613 1.0000   
         H         H         1.0       0.7469247993980601  0.8997718455224742  0.4613418146684913 1.0000   
         H         H         1.0       0.7855282583939609  0.8515266832439121  0.3757853069126403 1.0000   
         H         H         1.0       0.7669749460487242  0.9108485635758352  0.3490921478243464 1.0000   
         C         C         1.0       0.7313481406200484  0.7941523792521267  0.3847871452711328 1.0000   
         C         C         1.0       0.7507888351742351  0.7912904284184198  0.412906973090725  1.0000   
         C         C         1.0       0.7583662577903669  0.7546777361585597  0.42279306476687045          1.0000   
         C         C         1.0       0.748660396509713   0.7234621255446861  0.405884880272453  1.0000   
         C         C         1.0       0.7319283266133614  0.7272012861420927  0.37742645912334977          1.0000   
         C         C         1.0       0.7223903911748691  0.763459591292982   0.3676923744810559 1.0000   
         C         C         1.0       0.7627601535141681  0.8260106710234772  0.4343308058869012 1.0000   
         C         C         1.0       0.7338808286897074  0.8202825439383558  0.4616104415590863 1.0000   
         C         C         1.0       0.7398668669477391  0.8013346669996303  0.48915821917711677          1.0000   
         C         C         1.0       0.7132337621062602  0.7983623061400997  0.5120940688555824 1.0000   
         C         C         1.0       0.6799046953853648  0.816299044570893   0.5085841625410917 1.0000   
         C         C         1.0       0.6728743168280491  0.8314536438004394  0.47947686096602116          1.0000   
         C         C         1.0       0.6973505834132864  0.8309871524951535  0.4557508317839744 1.0000   
         C         C         1.0       0.8311533654832944  0.8048254913696383  0.4271345868060341 1.0000   
         C         C         1.0       0.8665944037845257  0.7984236979283466  0.4377371569890057 1.0000   
         C         C         1.0       0.8748136824025242  0.8106252823983887  0.4684622855233869 1.0000   
         C         C         1.0       0.8500122232635815  0.8328927791329667  0.48483194032297144          1.0000   
         C         C         1.0       0.8161046310406113  0.8407925017468026  0.4716522960599057 1.0000   
         C         C         1.0       0.8034327319882665  0.8228379350515556  0.4448586135538669 1.0000   
         C         C         1.0       0.9088163843070484  0.790341029440369   0.4871979828102961 1.0000   
         C         C         1.0       0.8455404559994735  0.6912634974131698  0.5154458517816677 1.0000   
         C         C         1.0       0.8706527801264814  0.6894093843840132  0.4909673532515921 1.0000   
         C         C         1.0       0.8938583475513681  0.7184188596824624  0.484996043887321  1.0000   
         C         C         1.0       0.8903720220539609  0.7523326277778913  0.4998151661357231 1.0000   
         C         C         1.0       0.8656291282729083  0.754869751784526   0.5241840911637946 1.0000   
         C         C         1.0       0.8440539165188503  0.7245090904190069  0.5328728585914009 1.0000   
         C         C         1.0       0.9259271473806335  0.8168322302408139  0.512269565515109  1.0000   
         C         C         1.0       0.9311053697683793  0.8560969721307652  0.508609591236005  1.0000   
         C         C         1.0       0.944370344758799   0.8769725677075141  0.5327396347662735 1.0000   
         C         C         1.0       0.9526988920934324  0.8601919916264267  0.5610773142052793 1.0000   
         C         C         1.0       0.9488446388267957  0.8221027260553514  0.565398428556099  1.0000   
         C         C         1.0       0.9370454890172544  0.8022814398255755  0.5406889832329335 1.0000   
         C         C         1.0       0.9734003936933658  0.7605453773829861  0.473238949601387  1.0000   
         C         C         1.0       0.005770230385602204          0.757792982232924  0.457790874450217  1.0000   
         C         C         1.0       0.013288595190397379          0.781205813868118  0.43195666986848597          1.0000   
         C         C         1.0       0.9851990567154961  0.8040852914328077  0.4227134181968835 1.0000   
         C         C         1.0       0.9545772542539452  0.810207356677878   0.43984215678091   1.0000   
         C         C         1.0       0.9458262383344304  0.7860022787292138  0.4653255172777972 1.0000   
         H         H         1.0       0.7257114220071831  0.8221965768324963  0.37617517055527977          1.0000   
         H         H         1.0       0.7760713594948824  0.7507885963939375  0.44329770612150693          1.0000   
         H         H         1.0       0.7536122350479824  0.6951852649479819  0.41520176495383415          1.0000   
         H         H         1.0       0.706208794614592   0.7660719505603294  0.34590906316616904          1.0000   
         H         H         1.0       0.7647321705915021  0.7852466520052667  0.49200309511361157          1.0000   
         H         H         1.0       0.7168560101215243  0.7820236053094843  0.5336641737364312 1.0000   
         H         H         1.0       0.6455302708480118  0.8403453011134039  0.4741421312964068 1.0000   
         H         H         1.0       0.6930273822330208  0.8449874790021694  0.4333479528825595 1.0000   
         H         H         1.0       0.8272169843126619  0.7935797128064126  0.4048180597349183 1.0000   
         H         H         1.0       0.8859864281357378  0.7804643710706994  0.4242037989684985 1.0000   
         H         H         1.0       0.8556232374622261  0.8442273973866906  0.5081963298889018 1.0000   
         H         H         1.0       0.7965737706549856  0.8557735807924998  0.4852168640725171 1.0000   
         H         H         1.0       0.8696716249062227  0.6639590352763072  0.4759372691423582 1.0000   
         H         H         1.0       0.9118803898005671  0.7165011973090566  0.4657301782139387 1.0000   
         H         H         1.0       0.8611190926910237  0.7811421609480063  0.535361463331794  1.0000   
         H         H         1.0       0.8201984878832153  0.7275257962115262  0.5503322841491238 1.0000   
         H         H         1.0       0.9228394592486012  0.8674613866545112  0.48708798390084945          1.0000   
         H         H         1.0       0.9432216850299049  0.9057021188065293  0.5286621743139502 1.0000   
         H         H         1.0       0.9516821280093314  0.8098304233308394  0.5884758472744699 1.0000   
         H         H         1.0       0.9369204625598673  0.7729465768898384  0.5431464442431317 1.0000   
         H         H         1.0       0.9703562183147333  0.7407790820937555  0.4921498968946242 1.0000   
         H         H         1.0       0.028787150826624197          0.7409460817203447 0.46785181946984444          1.0000   
         H         H         1.0       0.9900435223864554  0.821299438615562   0.4011028254903802 1.0000   
         H         H         1.0       0.934333097808909   0.8332532642319727  0.4333012043374373 1.0000   
         C         C         1.0       0.9140802515485004  0.7496162585765969  0.8379303206434423 1.0000   
         C         C         1.0       0.8836528516605322  0.7283419790902376  0.8352004093921782 1.0000   
         C         C         1.0       0.8504609285135126  0.7444914426028215  0.827593230773184  1.0000   
         C         C         1.0       0.8467614191655293  0.7827359719598224  0.8246803498397008 1.0000   
         C         C         1.0       0.8783164841694835  0.8039697107087415  0.8273224777019318 1.0000   
         C         C         1.0       0.9113641943114876  0.7879383643328364  0.8329333665522076 1.0000   
         H         H         1.0       0.885374089168312   0.6991773865352197  0.8429540477574106 1.0000   
         H         H         1.0       0.8283970376199552  0.7250042030187739  0.8284595116666735 1.0000   
         H         H         1.0       0.8768498854792585  0.8327544644939541  0.8193242250955792 1.0000   
         H         H         1.0       0.9352860998059627  0.8061836186105203  0.8379290727349714 1.0000   
         C         C         1.0       0.8181719387323972  0.8629420355590846  0.8434067623370801 1.0000   
         C         C         1.0       0.7985789706172588  0.8419927666117591  0.8217499594813561 1.0000   
         C         C         1.0       0.7696269547349698  0.8593044794668424  0.8061479525304717 1.0000   
         C         C         1.0       0.7650999492237364  0.8978261000115902  0.8077493193076312 1.0000   
         C         C         1.0       0.7865442122418875  0.9178239580033938  0.8286518511198508 1.0000   
         C         C         1.0       0.8141896731107823  0.9006834342340861  0.8466259217416386 1.0000   
         C         C         1.0       0.8079886246452677  0.7995101638249796  0.8123577172707126 1.0000   
         C         C         1.0       0.7746121405794741  0.7772419088451435  0.828737587941026  1.0000   
         C         C         1.0       0.7476477561014765  0.7617097201488552  0.8092105246047859 1.0000   
         C         C         1.0       0.7293406641673993  0.7285217346704924  0.8179210672514843 1.0000   
         C         C         1.0       0.7321792454552684  0.7153813931549032  0.8473219772251983 1.0000   
         C         C         1.0       0.7524093194635759  0.7365713943900747  0.8687813941084618 1.0000   
         C         C         1.0       0.7734621544738461  0.7663757797580153  0.859421860144944  1.0000   
         C         C         1.0       0.8300788743763747  0.8245404739522     0.7591307187264084 1.0000   
         C         C         1.0       0.8342208118445416  0.8237201785533204  0.7273223193624263 1.0000   
         C         C         1.0       0.8247414888107316  0.7922911741724679  0.7092518664092716 1.0000   
         C         C         1.0       0.814111249602378   0.760969780678805   0.7261110890124044 1.0000   
         C         C         1.0       0.8088078099811833  0.7625706347200031  0.7579941449208367 1.0000   
         C         C         1.0       0.8153178227568094  0.7946803750199415  0.7750465955796971 1.0000   
         C         C         1.0       0.8278299767425759  0.7896642295050078  0.6706333267378839 1.0000   
         C         C         1.0       0.7086418174018425  0.8179253681501926  0.6615486787141306 1.0000   
         C         C         1.0       0.7345900165527933  0.8460044457275768  0.6627124580852903 1.0000   
         C         C         1.0       0.7726541395306702  0.838930275203243   0.6644960114844849 1.0000   
         C         C         1.0       0.78537393289488    0.8007388211876387  0.6670117840438122 1.0000   
         C         C         1.0       0.7588630688517217  0.7724208300395803  0.6661712178639729 1.0000   
         C         C         1.0       0.7214878273864116  0.7805620859188033  0.6639363637273261 1.0000   
         C         C         1.0       0.8392447434856702  0.7532265242119658  0.6513229743897248 1.0000   
         C         C         1.0       0.8628561263858623  0.728633186015682   0.6670864102720939 1.0000   
         C         C         1.0       0.8649031836148324  0.690795615049251   0.6591915568713084 1.0000   
         C         C         1.0       0.8401702024727581  0.6767955423326443  0.6367365001981389 1.0000   
         C         C         1.0       0.8204475254921426  0.7009254309860403  0.6194394778131074 1.0000   
         C         C         1.0       0.8234389368985863  0.7397198252329312  0.6238014393002139 1.0000   
         C         C         1.0       0.8479686292094356  0.8333821728887488  0.6254982368455029 1.0000   
         C         C         1.0       0.8715490369263303  0.8602168567134506  0.6128199826084746 1.0000   
         C         C         1.0       0.9053720702752989  0.8676938155419359  0.6254720611087384 1.0000   
         C         C         1.0       0.9113616270861956  0.8550665612951913  0.6545353410788571 1.0000   
         C         C         1.0       0.8846533835468313  0.8332575745996216  0.6696581532237618 1.0000   
         C         C         1.0       0.8535994141639365  0.819749749163035   0.6547821475367854 1.0000   
         H         H         1.0       0.839763992657696   0.8482130861759435  0.8571024580416128 1.0000   
         H         H         1.0       0.7515969383597896  0.842981281230997   0.792986378487816  1.0000   
         H         H         1.0       0.7426233034107377  0.9099138189441278  0.7961483739951526 1.0000   
         H         H         1.0       0.8324035688788681  0.9170920309340808  0.8603907692111298 1.0000   
         H         H         1.0       0.7430592234664831  0.7738781865700365  0.7869804755032285 1.0000   
         H         H         1.0       0.7095066906775629  0.7164894021750464  0.800491134325168  1.0000   
         H         H         1.0       0.7550299166127799  0.7251344053496901  0.8931391182932072 1.0000   
         H         H         1.0       0.7903582714101405  0.781114677132673   0.8759051675111672 1.0000   
         H         H         1.0       0.8393577164838222  0.8499603576149634  0.7720650493581411 1.0000   
         H         H         1.0       0.8377584778196737  0.851839694266969   0.7171384182296777 1.0000   
         H         H         1.0       0.8065435674382349  0.7363381527314414  0.7139481599154731 1.0000   
         H         H         1.0       0.798867507973194   0.7382398058244477  0.7711899856209214 1.0000   
         H         H         1.0       0.7246212019182747  0.8737268890055833  0.6594085244998988 1.0000   
         H         H         1.0       0.7901470236990755  0.8638149568357504  0.6642222303517716 1.0000   
         H         H         1.0       0.7683182700164278  0.7428757821319157  0.6673931210535314 1.0000   
         H         H         1.0       0.7007208090963374  0.7576475434442588  0.659837229712815  1.0000   
         H         H         1.0       0.8781709231645908  0.7365848975580356  0.6880215093808304 1.0000   
         H         H         1.0       0.8777495810430065  0.6715031844154972  0.6741655411718438 1.0000   
         H         H         1.0       0.8004324758460327  0.6863425821784825  0.6060233832837503 1.0000   
         H         H         1.0       0.8044686046534212  0.757605327974701   0.6124432110673854 1.0000   
         H         H         1.0       0.8234167227490548  0.8273307186156137  0.6136357229295831 1.0000   
         H         H         1.0       0.8633169371188261  0.8745583046743005  0.5916109517836251 1.0000   
         H         H         1.0       0.9375161799066514  0.8582828317319668  0.6658656416669393 1.0000   
         H         H         1.0       0.8915888969998     0.8196652207945739  0.6909242922854717 1.0000   
         C         C         1.0       0.36206536974181447           0.7866796184135036 0.3712087379672065 1.0000   
         C         C         1.0       0.3620063036463879  0.7724426400199831  0.40178479976912285          1.0000   
         C         C         1.0       0.39398797268933117           0.7688511390972833 0.41728195947233615          1.0000   
         C         C         1.0       0.42789105230324587           0.773337552654173  0.4025455533182379 1.0000   
         C         C         1.0       0.428556300222278   0.7857974843210075  0.37138387270790557          1.0000   
         C         C         1.0       0.39599177899100574           0.7925954220918471 0.35585837323759734          1.0000   
         H         H         1.0       0.33556162969943315           0.7703687522510838 0.4147747379452533 1.0000   
         H         H         1.0       0.39053073442672326           0.7589572483559568 0.4412119245676109 1.0000   
         H         H         1.0       0.4550982314195286  0.7900347545692551  0.3584612110661954 1.0000   
         H         H         1.0       0.39620378596715317           0.8011441739783345 0.33048915366357395          1.0000   
         C         C         1.0       0.4980617549989662  0.7315968472503216  0.3766504566165091 1.0000   
         C         C         1.0       0.49898671180987914           0.7520859169633355 0.4033793507460784 1.0000   
         C         C         1.0       0.5343209330555836  0.7569925132222817  0.41698277211857127          1.0000   
         C         C         1.0       0.5656128155262498  0.7436279360265893  0.4027347211814314 1.0000   
         C         C         1.0       0.5627140194830292  0.7238092248562668  0.37612759881811797          1.0000   
         C         C         1.0       0.5292594371821926  0.719905495294307   0.3615164500402536 1.0000   
         C         C         1.0       0.4633529333527247  0.7652565636426243  0.4229539873751277 1.0000   
         C         C         1.0       0.45753703802151807           0.7292047468974703 0.4442400737883228 1.0000   
         C         C         1.0       0.465384654056982   0.7265190941393899  0.4752389505062034 1.0000   
         C         C         1.0       0.45734961459263124           0.6963799541030267 0.49279356760027043          1.0000   
         C         C         1.0       0.440993583220037   0.6652233930256023  0.4803284643022679 1.0000   
         C         C         1.0       0.435105279975357   0.6650660637447783  0.4477758895134918 1.0000   
         C         C         1.0       0.44224728708286115           0.6964815960187068 0.43083154404656676          1.0000   
         C         C         1.0       0.4916380036604072  0.8328283689210179  0.42469728274517354          1.0000   
         C         C         1.0       0.49799094314944603           0.8673311647132983 0.4388891873622397 1.0000   
         C         C         1.0       0.4817606557698698  0.874948182006524   0.46719075895225776          1.0000   
         C         C         1.0       0.4588747442436459  0.8473245123589792  0.4804868475839237 1.0000   
         C         C         1.0       0.4502390063569917  0.814883502094059   0.46546694553715845          1.0000   
         C         C         1.0       0.46870273196446643           0.8047734022142533 0.43829208221768273          1.0000   
         C         C         1.0       0.49616196728015266           0.9133379143638659 0.48583274829708645          1.0000   
         C         C         1.0       0.5962688374859593  0.8657379592853679  0.5290449197533489 1.0000   
         C         C         1.0       0.5991740735226723  0.8887889333924608  0.5024949979525192 1.0000   
         C         C         1.0       0.5673804955255288  0.9026546206070782  0.48833382266264946          1.0000   
         C         C         1.0       0.5329947639253328  0.8951456030747419  0.5014995898065692 1.0000   
         C         C         1.0       0.5317162326162459  0.8734827413954879  0.5277825274061755 1.0000   
         C         C         1.0       0.5623856315709965  0.8595384798618696  0.5419379956390864 1.0000   
         C         C         1.0       0.467958033310984   0.9315779750557583  0.5106914407750274 1.0000   
         C         C         1.0       0.4307140416781748  0.9244720738157963  0.5090172153286051 1.0000   
         C         C         1.0       0.4071477142358701  0.9344647396049269  0.5323081226185818 1.0000   
         C         C         1.0       0.4195009696259288  0.9498135959572688  0.558578913509995  1.0000   
         C         C         1.0       0.4557084280312454  0.9597957921020502  0.5611316400749653 1.0000   
         C         C         1.0       0.47904441362823236           0.9507600466480359 0.5376064517430585 1.0000   
         C         C         1.0       0.5245683524881508  0.9813478368204231  0.47178966214645546          1.0000   
         C         C         1.0       0.5232461514283018  0.013918765934906707         0.45403864567675356          1.0000   
         C         C         1.0       0.49906543139850273           0.01572168538646368          0.4289799393238242 1.0000   
         C         C         1.0       0.47671464076872744           0.9867976067759836 0.4215458986518256 1.0000   
         C         C         1.0       0.47682802938000907           0.9547390436846307 0.4402697696978207 1.0000   
         C         C         1.0       0.5022644725860673  0.9503055063120154  0.46497274452635373          1.0000   
         H         H         1.0       0.47161379070570536           0.72822103918266   0.36610044800662084          1.0000   
         H         H         1.0       0.5378433008478164  0.7679057047657528  0.44174706497709987          1.0000   
         H         H         1.0       0.5891618664117149  0.7450047201677178  0.4157446182238183 1.0000   
         H         H         1.0       0.5244675343024631  0.7053500462124378  0.33925460116101563          1.0000   
         H         H         1.0       0.4795379256610766  0.75098224803252    0.48558535625251736          1.0000   
         H         H         1.0       0.4644705111030146  0.6982213561657878  0.5158198904589782 1.0000   
         H         H         1.0       0.42900175694559073           0.6394134815947543 0.43436998948446726          1.0000   
         H         H         1.0       0.43487934517865073           0.6932157862223332 0.40601083783777325          1.0000   
         H         H         1.0       0.5035737292134772  0.8265096280951981  0.40149282269735964          1.0000   
         H         H         1.0       0.5177840317464149  0.887399568345036   0.4288429884237155 1.0000   
         H         H         1.0       0.447685883021626   0.850291192363813   0.5032727015158213 1.0000   
         H         H         1.0       0.4307723437873143  0.7958670965640201  0.4753116187123756 1.0000   
         H         H         1.0       0.6232444221998984  0.9012965465698223  0.4920698665248396 1.0000   
         H         H         1.0       0.5703202237960152  0.9182168424824635  0.4658148853522997 1.0000   
         H         H         1.0       0.5060092062365744  0.8682547828109867  0.5394754896591875 1.0000   
         H         H         1.0       0.5604467816519775  0.8416673729127894  0.562828177991995  1.0000   
         H         H         1.0       0.4182828162797644  0.9104568891815187  0.4896205557488493 1.0000   
         H         H         1.0       0.3785627621626839  0.9276422352378755  0.5296491521583339 1.0000   
         H         H         1.0       0.46744659058368515           0.9716631190934765 0.5814924933551427 1.0000   
         H         H         1.0       0.5075717774971226  0.9576871351312787  0.540967241629959  1.0000   
         H         H         1.0       0.5401314056945513  0.9789375967411589  0.4924268886182873 1.0000   
         H         H         1.0       0.5402980535458408  0.03689504484302564           0.4594289187070989 1.0000   
         H         H         1.0       0.45863531830576837           0.9896720304574006 0.4019458997734376 1.0000   
         H         H         1.0       0.45606429925478525           0.9341556345488822 0.4350070027215021 1.0000   
         C         C         1.0       0.5460843455645472  0.9524624281082191  0.8186151362683354 1.0000   
         C         C         1.0       0.5663913521576444  0.920440566121118   0.8226458006391617 1.0000   
         C         C         1.0       0.550827355938219   0.8856796952014809  0.8170872143555218 1.0000   
         C         C         1.0       0.5125045725039373  0.8804870015662644  0.8135878307370373 1.0000   
         C         C         1.0       0.4940857794736866  0.914398222310699   0.8087658373701017 1.0000   
         C         C         1.0       0.5093738385770487  0.9486831701075407  0.810882555159284  1.0000   
         H         H         1.0       0.5945573680636461  0.9213471988707648  0.8276419673844488 1.0000   
         H         H         1.0       0.5672367638789167  0.8603322361999926  0.8183077044760547 1.0000   
         H         H         1.0       0.4647440256100994  0.9118521205885053  0.8048078432309993 1.0000   
         H         H         1.0       0.49201323255592405           0.9705875665738292 0.8085318524416429 1.0000   
         C         C         1.0       0.43569736495469974           0.8641999420001033 0.8451893979932772 1.0000   
         C         C         1.0       0.4509619543649173  0.8387614175361531  0.824795541928644  1.0000   
         C         C         1.0       0.4310361556943288  0.8075369547513992  0.8164757575024452 1.0000   
         C         C         1.0       0.3963081736340986  0.8030857762431101  0.8295412197223725 1.0000   
         C         C         1.0       0.37985456565659304           0.8315934435747477 0.8455888555236624 1.0000   
         C         C         1.0       0.3999572297725529  0.8615904888380866  0.8546391017927737 1.0000   
         C         C         1.0       0.49166783334882896           0.8408147575522747 0.8114180900042999 1.0000   
         C         C         1.0       0.5127688637322704  0.8097113646788329  0.8316524410043931 1.0000   
         C         C         1.0       0.5216454220885377  0.7748011467482399  0.8192459008701198 1.0000   
         C         C         1.0       0.5454990338286475  0.7525634532950962  0.834681460031587  1.0000   
         C         C         1.0       0.5594272311836431  0.7614864885080171  0.8639144844450275 1.0000   
         C         C         1.0       0.5492222301634955  0.7949685993860387  0.877128641116401  1.0000   
         C         C         1.0       0.5236148410844613  0.8165124524581701  0.8632823006715155 1.0000   
         C         C         1.0       0.4618104815904604  0.8457883246818735  0.7552884385199586 1.0000   
         C         C         1.0       0.4613359177843882  0.8427926545772318  0.723441644989465  1.0000   
         C         C         1.0       0.493510038914638   0.8312408952268252  0.7065990356526362 1.0000   
         C         C         1.0       0.5229878141218691  0.8203782006232705  0.724068801994469  1.0000   
         C         C         1.0       0.5232583105098965  0.8255431527306475  0.7562432169358596 1.0000   
         C         C         1.0       0.49303649683539036           0.8377867898281797 0.7742579001894301 1.0000   
         C         C         1.0       0.49102725371357037           0.8299130346396305 0.6698211784820913 1.0000   
         C         C         1.0       0.4392426138464249  0.7176379220256976  0.6719927484654158 1.0000   
         C         C         1.0       0.41853790508045363           0.748621212324625  0.6669063530864823 1.0000   
         C         C         1.0       0.43494460239621024           0.7829865389634758 0.6659645100496158 1.0000   
         C         C         1.0       0.473148505832103   0.7881660973957263  0.6664630732945036 1.0000   
         C         C         1.0       0.49345248735264696           0.7565469370886004 0.6718825134881886 1.0000   
         C         C         1.0       0.47694488274628494           0.7215355782332038 0.6736744273210253 1.0000   
         C         C         1.0       0.5317690521616736  0.8384134636858641  0.65582648317722   1.0000   
         C         C         1.0       0.5503901864597861  0.8709772722392248  0.6648384506756637 1.0000   
         C         C         1.0       0.5875005249811417  0.8754284596096655  0.6561305171252324 1.0000   
         C         C         1.0       0.6061886473882507  0.8467121249927588  0.6399989137037655 1.0000   
         C         C         1.0       0.5849489505947231  0.8188471502373513  0.6267068456445195 1.0000   
         C         C         1.0       0.5481233443380142  0.81405078470431    0.6342842141532189 1.0000   
         C         C         1.0       0.4566049854733941  0.8518735440342667  0.6201919740547013 1.0000   
         C         C         1.0       0.4291877137889187  0.8717312405628981  0.6045511077187063 1.0000   
         C         C         1.0       0.41421787814031324           0.9030100129075969 0.6187368072913165 1.0000   
         C         C         1.0       0.4253558456852926  0.9141318474773437  0.6469164137710071 1.0000   
         C         C         1.0       0.4501618545532457  0.8928848262378676  0.6639908194274796 1.0000   
         C         C         1.0       0.465812204234846   0.8601229147687145  0.6513430153610745 1.0000   
         H         H         1.0       0.4537960633206145  0.8847171126804941  0.8552071390619309 1.0000   
         H         H         1.0       0.44131107527884333           0.7842355282655491 0.8013488032405597 1.0000   
         H         H         1.0       0.3806415096396408  0.7801220195177143  0.8215866468707678 1.0000   
         H         H         1.0       0.38855446373946606           0.8808298117891328 0.8736199906494598 1.0000   
         H         H         1.0       0.5089796262495727  0.7706489228692626  0.7971208067431701 1.0000   
         H         H         1.0       0.5513608384574431  0.7233987271754276  0.8245973287570156 1.0000   
         H         H         1.0       0.5599954906337853  0.8030912120955053  0.9004297563467937 1.0000   
         H         H         1.0       0.5161094156717687  0.8432974612089149  0.8741418953627126 1.0000   
         H         H         1.0       0.4368946463799333  0.8547617182831503  0.7673299800536635 1.0000   
         H         H         1.0       0.43429914970314415           0.8485520037895566 0.7106077865929858 1.0000   
         H         H         1.0       0.547286220382774   0.8088584959699011  0.7121635946780815 1.0000   
         H         H         1.0       0.5454035876032265  0.8155269143786715  0.7693053000915935 1.0000   
         H         H         1.0       0.3904813699077857  0.7420548199095753  0.6618667564911384 1.0000   
         H         H         1.0       0.41731641285564586           0.8073518269435346 0.6630375967406754 1.0000   
         H         H         1.0       0.5214208165870146  0.7627921775205054  0.6780814199613397 1.0000   
         H         H         1.0       0.49365787499747715           0.697240415862888  0.6766535042631976 1.0000   
         H         H         1.0       0.5375849991760284  0.8933251856365888  0.6784810063440052 1.0000   
         H         H         1.0       0.602600683614658   0.9003524675721721  0.6631573298089398 1.0000   
         H         H         1.0       0.5966078722342446  0.7992818762315946  0.6105752508395317 1.0000   
         H         H         1.0       0.5339130205316126  0.7888875330624052  0.6257490367526146 1.0000   
         H         H         1.0       0.4670098722537138  0.8240142851818654  0.6100292961533275 1.0000   
         H         H         1.0       0.4237524240432616  0.8661889489670088  0.5802756710581528 1.0000   
         H         H         1.0       0.41751443865991866           0.9421152376715424 0.6570200619218909 1.0000   
         H         H         1.0       0.4577069944126257  0.9010940135539174  0.6867791133061248 1.0000   
         C         C         1.0       0.48013533904171624           0.342614169420251  0.38407763441674586          1.0000   
         C         C         1.0       0.48218855147032713           0.3525319995379259 0.41529268396932534          1.0000   
         C         C         1.0       0.47765918249711975           0.38928242343941993          0.4236881282539508 1.0000   
         C         C         1.0       0.4671032924860746  0.4169063244259879  0.4019548668318811 1.0000   
         C         C         1.0       0.45626986903062494           0.40301371577579637          0.37208362295670566          1.0000   
         C         C         1.0       0.462792570653882   0.36698154494822083           0.36343321707784026          1.0000   
         H         H         1.0       0.4929910791053391  0.3323217712675122  0.43412888386431714          1.0000   
         H         H         1.0       0.4818368419645452  0.3987873191109467  0.44741467329630774          1.0000   
         H         H         1.0       0.44645690219692874           0.42084563946380904          0.3533946587355437 1.0000   
         H         H         1.0       0.4575713888054723  0.360724258996329   0.3381148351862116 1.0000   
         C         C         1.0       0.4886211486627036  0.4864937370138979  0.3613030881659014 1.0000   
         C         C         1.0       0.4693744185988074  0.49025575777814    0.3888497125221024 1.0000   
         C         C         1.0       0.4597518619603784  0.526855582247702   0.39748458554404636          1.0000   
         C         C         1.0       0.47507463975130027           0.5570075770215445 0.38250818937763004          1.0000   
         C         C         1.0       0.49822412840512104           0.5515467772322755 0.35723017303444154          1.0000   
         C         C         1.0       0.5022449453975284  0.5160132642870738  0.344552886387906  1.0000   
         C         C         1.0       0.46548764546587545           0.45922258892160245          0.4154873619920582 1.0000   
         C         C         1.0       0.4999710862454541  0.4679483328826324  0.4363375249547396 1.0000   
         C         C         1.0       0.49457295663639694           0.4911208894861623 0.46380569693585755          1.0000   
         C         C         1.0       0.5240795334353762  0.49959835745484144           0.4813463321366252 1.0000   
         C         C         1.0       0.5610624712065685  0.49225170215137565           0.47084933751569097          1.0000   
         C         C         1.0       0.5652729178877972  0.4768630613121529  0.442410519459929  1.0000   
         C         C         1.0       0.5356273850114679  0.4626007707268874  0.4262781596748459 1.0000   
         C         C         1.0       0.39534610300566475           0.47069071389333555          0.41840575446000866          1.0000   
         C         C         1.0       0.3615390149620576  0.4763166775185162  0.4337302120807916 1.0000   
         C         C         1.0       0.35674477632555135           0.46868149239164103          0.465570509127461  1.0000   
         C         C         1.0       0.38605270955401405           0.45172044561431735          0.47984545900979114          1.0000   
         C         C         1.0       0.4189869100831215  0.44500870682247706           0.464353896763933  1.0000   
         C         C         1.0       0.4260055117001382  0.4578723551858699  0.4335878152198651 1.0000   
         C         C         1.0       0.3235049787483836  0.4854621652410506  0.48700345015957636          1.0000   
         C         C         1.0       0.37853459250863913           0.5924794668659379 0.505673083062557  1.0000   
         C         C         1.0       0.36016811163221    0.5889694613860236  0.4774886025409049 1.0000   
         C         C         1.0       0.34027486453903594           0.5565525357982598 0.47184783989429213          1.0000   
         C         C         1.0       0.341958073803654   0.5264628220968822  0.4935634148332611 1.0000   
         C         C         1.0       0.3662129985077883  0.5288867111558049  0.5169393675721581 1.0000   
         C         C         1.0       0.3825401149147573  0.5623809676097347  0.5254125850625466 1.0000   
         C         C         1.0       0.31224970424783133           0.45882948890710173          0.5140504790885576 1.0000   
         C         C         1.0       0.31508058020959784           0.42062462173913734          0.5111784327409507 1.0000   
         C         C         1.0       0.31363846207949736           0.3963319434084093 0.5361584187931858 1.0000   
         C         C         1.0       0.30960580850981684           0.41357684870685396          0.5660363107706792 1.0000   
         C         C         1.0       0.3014510673099953  0.45129967863891    0.5687028276511911 1.0000   
         C         C         1.0       0.30155236564102983           0.47347809811252856          0.5423526465870544 1.0000   
         C         C         1.0       0.26143362990409186           0.5164681157361948 0.4780827484374332 1.0000   
         C         C         1.0       0.22931414983726178           0.5222043807545407 0.46295888278121233          1.0000   
         C         C         1.0       0.2189231580632871  0.497515542612955   0.44025404161244447          1.0000   
         C         C         1.0       0.24063710801218866           0.4671857259624122 0.4318383004961196 1.0000   
         C         C         1.0       0.2762849328400813  0.4643212555717969  0.4455460270980721 1.0000   
         C         C         1.0       0.28527117983026123           0.48954705820019245          0.46899874779957257          1.0000   
         H         H         1.0       0.4976776923099781  0.4605264279144896  0.35214999035748507          1.0000   
         H         H         1.0       0.4451360456474165  0.5337976505599639  0.41905831338689226          1.0000   
         H         H         1.0       0.47160005657451026           0.5855344996640764 0.3908116783524026 1.0000   
         H         H         1.0       0.5231139581234812  0.5087730912408412  0.3262300436082206 1.0000   
         H         H         1.0       0.46671333727419323           0.4998165005250563 0.47083397495962376          1.0000   
         H         H         1.0       0.520182958554053   0.5082924408736428  0.5061370458217326 1.0000   
         H         H         1.0       0.5923708953021878  0.47136273300307    0.43299176875869777          1.0000   
         H         H         1.0       0.539393347816176   0.4483106541162879  0.4033119673588461 1.0000   
         H         H         1.0       0.39647351334993924           0.4818592024093906 0.39321985143711335          1.0000   
         H         H         1.0       0.3414034281810186  0.49538679414944337           0.42098973410144935          1.0000   
         H         H         1.0       0.383881592305642   0.44478035279343675           0.5036711263632153 1.0000   
         H         H         1.0       0.4395874904707731  0.43028276271242966           0.47700192586494855          1.0000   
         H         H         1.0       0.3584580649837605  0.6121471392885481  0.4609294528168724 1.0000   
         H         H         1.0       0.327854425067087   0.5506079885840315  0.44891967770519137          1.0000   
         H         H         1.0       0.3717424980053168  0.5036719139634246  0.5296260670212276 1.0000   
         H         H         1.0       0.3982534616754159  0.5651965805965881  0.5465112754991837 1.0000   
         H         H         1.0       0.31809632414887945           0.40726781990253   0.4875572839198436 1.0000   
         H         H         1.0       0.31329920025109187           0.36624752792432047          0.5330974695401148 1.0000   
         H         H         1.0       0.29514049500640593           0.4620910649414491 0.5919338700169561 1.0000   
         H         H         1.0       0.29883327863829207           0.5024590954679078 0.5449129788385686 1.0000   
         H         H         1.0       0.2654870245794261  0.5326045795114359  0.49881638124748623          1.0000   
         H         H         1.0       0.20783766182930996           0.5426314350013431 0.4707085806934248 1.0000   
         H         H         1.0       0.2337536030868446  0.4494115183955044  0.4121039907258963 1.0000   
         H         H         1.0       0.2949212673455024  0.44271850828392234           0.4407317601555191 1.0000   
         C         C         1.0       0.3328385463518017  0.5443518282929352  0.8466186586056529 1.0000   
         C         C         1.0       0.362202617657179   0.5678776789795272  0.8393165290595973 1.0000   
         C         C         1.0       0.3949002303197411  0.5545848970535949  0.828675761605807  1.0000   
         C         C         1.0       0.3992551085135104  0.5156656585833954  0.8255652922329275 1.0000   
         C         C         1.0       0.36886455001655927           0.4942420061782395 0.8281369204091156 1.0000   
         C         C         1.0       0.33741648307997857           0.5069688351020787 0.8419465222104258 1.0000   
         H         H         1.0       0.3580301023753801  0.5968747981930662  0.84417418847624   1.0000   
         H         H         1.0       0.41884520585766827           0.5742040255014194 0.8279088490677735 1.0000   
         H         H         1.0       0.3670709378981557  0.4648504595132372  0.8227570112636552 1.0000   
         H         H         1.0       0.315218830800037   0.4876501691521282  0.8427824589942975 1.0000   
         C         C         1.0       0.4311516244086643  0.4400667616529771  0.850854727852979  1.0000   
         C         C         1.0       0.44615531879921116           0.45347418254652544          0.8232799686501177 1.0000   
         C         C         1.0       0.4693709701508891  0.430832173270668   0.8069311244902219 1.0000   
         C         C         1.0       0.4748959284127289  0.39310151669487026           0.8149780792580117 1.0000   
         C         C         1.0       0.46208020012032097           0.38097329397866403          0.842834313810776  1.0000   
         C         C         1.0       0.4373928356677144  0.4030086152434748  0.8590328922320378 1.0000   
         C         C         1.0       0.4367467723463939  0.4970916309111105  0.8131231843682275 1.0000   
         C         C         1.0       0.47451745411389823           0.5165086547248097 0.8281208521769005 1.0000   
         C         C         1.0       0.5065882649721434  0.5206719704122299  0.8103811514393398 1.0000   
         C         C         1.0       0.5319799635959446  0.5460188912812992  0.8184946545913454 1.0000   
         C         C         1.0       0.5275887402225583  0.5678670942334066  0.8453015559001554 1.0000   
         C         C         1.0       0.4993184776560891  0.5602322317777143  0.8666684456247369 1.0000   
         C         C         1.0       0.47335701442754136           0.5338662465576987 0.8581052948186901 1.0000   
         C         C         1.0       0.41411896684114946           0.4749687813832069 0.7593655887509716 1.0000   
         C         C         1.0       0.41297583082406025           0.4747987347369498 0.728140735603412  1.0000   
         C         C         1.0       0.424668302494505   0.505991064006443   0.7118137661316886 1.0000   
         C         C         1.0       0.4420072910049521  0.5344994926885372  0.7289548166583195 1.0000   
         C         C         1.0       0.44634090557700906           0.5333256623341336 0.7614704713259048 1.0000   
         C         C         1.0       0.43281506979424483           0.5016283058592408 0.7768804745462695 1.0000   
         C         C         1.0       0.42438879255617185           0.5102969874121416 0.673254635125448  1.0000   
         C         C         1.0       0.5432845292552587  0.4956548168746597  0.6504056843034066 1.0000   
         C         C         1.0       0.5212313455902117  0.46525396446867545           0.6528333731136322 1.0000   
         C         C         1.0       0.4833910243201035  0.46854155543546755           0.6602730592763397 1.0000   
         C         C         1.0       0.4671774759972083  0.50340680558664    0.663720301753605  1.0000   
         C         C         1.0       0.48983953083389825           0.534346549989075  0.6622051601860174 1.0000   
         C         C         1.0       0.5269845556420107  0.5302516698742668  0.6567557032004114 1.0000   
         C         C         1.0       0.40583210213385473           0.5497141249830354 0.6622347233382408 1.0000   
         C         C         1.0       0.3811393249309405  0.5704592390587988  0.6813761757170227 1.0000   
         C         C         1.0       0.37393262587703724           0.607131585809633  0.676963961555786  1.0000   
         C         C         1.0       0.38772243736652945           0.6247513097843039 0.6509955067505862 1.0000   
         C         C         1.0       0.40758832314292426           0.6038121336534733 0.6291448850847613 1.0000   
         C         C         1.0       0.4175742541562062  0.5676230556323338  0.6350401837192072 1.0000   
         C         C         1.0       0.40659218289484605           0.47585584553215876          0.6214092884973325 1.0000   
         C         C         1.0       0.3896486543594965  0.44537707725305464           0.6070420292389143 1.0000   
         C         C         1.0       0.3640486892685061  0.42344503797356325           0.621865359915131  1.0000   
         C         C         1.0       0.3515427561205251  0.4353799076071296  0.6502790663408449 1.0000   
         C         C         1.0       0.36760767056174404           0.46542802599107597          0.664641529272329  1.0000   
         C         C         1.0       0.39900252952944204           0.4824467301847978 0.6527819123843464 1.0000   
         H         H         1.0       0.41630884689687375           0.4575915969852586 0.8683311407169739 1.0000   
         H         H         1.0       0.48694008620324114           0.44045277850578557          0.7877849592614675 1.0000   
         H         H         1.0       0.494918177953796   0.376077070198563   0.8040394990523901 1.0000   
         H         H         1.0       0.42539733489253306           0.3943422683110156 0.8807494907219203 1.0000   
         H         H         1.0       0.508755955468873   0.5074211331554728  0.786982106542893  1.0000   
         H         H         1.0       0.5531296496877427  0.5508763482143483  0.8005428417561616 1.0000   
         H         H         1.0       0.49745478881930066           0.5767345130427155 0.8884086857094077 1.0000   
         H         H         1.0       0.448705330899196   0.5287431067139221  0.8724218128977148 1.0000   
         H         H         1.0       0.4068845087711337  0.44906956727583675           0.7683811014635964 1.0000   
         H         H         1.0       0.40052727430911955           0.4541048861953537 0.7170277772186515 1.0000   
         H         H         1.0       0.4521494848005116  0.55877847140602    0.7171517749675245 1.0000   
         H         H         1.0       0.45870559208610456           0.5557562153750535 0.7735885286713936 1.0000   
         H         H         1.0       0.5293737230982065  0.4378578980110109  0.6470202708635538 1.0000   
         H         H         1.0       0.4652115107646746  0.44375691826907526           0.6603959830847305 1.0000   
         H         H         1.0       0.48019237633912165           0.5619627257645541 0.6692894493973275 1.0000   
         H         H         1.0       0.5419308146745386  0.556591289854266   0.6572964671466309 1.0000   
         H         H         1.0       0.3736262774432968  0.5563821259345618  0.7032948875730242 1.0000   
         H         H         1.0       0.3614370585360533  0.6238593649687325  0.6954387104807048 1.0000   
         H         H         1.0       0.4206295760440163  0.6165856338898261  0.6095450108313529 1.0000   
         H         H         1.0       0.4343821784889149  0.5553981552602624  0.6168166047206545 1.0000   
         H         H         1.0       0.43171957145548784           0.4912292920574387 0.6100675331279204 1.0000   
         H         H         1.0       0.3938555248659148  0.4394424450313519  0.5822432095306908 1.0000   
         H         H         1.0       0.32950001751781294           0.4203296411300292 0.6609553595548047 1.0000   
         H         H         1.0       0.3551044787270153  0.4759920203696814  0.6868971768886871 1.0000   
         C         C         1.0       0.9402363791682841  0.3654924017613106  0.9599297208780717 1.0000   
         C         C         1.0       0.9344888096227721  0.3689304987306426  0.9283922717749908 1.0000   
         C         C         1.0       0.944881179981206   0.34160690534944926           0.9076657979477654 1.0000   
         C         C         1.0       0.9611337514801345  0.30856348609671846           0.9185882768699877 1.0000   
         C         C         1.0       0.961912920973885   0.3021012885677237  0.950774745790746  1.0000   
         C         C         1.0       0.9537046725229262  0.33265390076511164           0.9707577356175224 1.0000   
         H         H         1.0       0.9280997571994856  0.3966391180108064  0.9203581753463971 1.0000   
         H         H         1.0       0.9489530359504306  0.34737722250032266           0.882816304335961  1.0000   
         H         H         1.0       0.9729099073413282  0.27741351359221406           0.9639746605374663 1.0000   
         H         H         1.0       0.9580814664633807  0.3266012882269818  0.9941668179229003 1.0000   
         C         C         1.0       0.028664245196162952          0.2488368982577002 0.9267915725409034 1.0000   
         C         C         1.0       0.9995943922707682  0.2434690490534816  0.9091036377353755 1.0000   
         C         C         1.0       0.9938995237934023  0.2063830346049438  0.8984222634459527 1.0000   
         C         C         1.0       0.018801101926498198          0.17737121776902062          0.9019804529108295 1.0000   
         C         C         1.0       0.04874305718661964           0.1860866464437179 0.9184549275841123 1.0000   
         C         C         1.0       0.05387509413267555           0.2218078943126755 0.9308343500924832 1.0000   
         C         C         1.0       0.9793648100568817  0.2795592890191103  0.8941022753131516 1.0000   
         C         C         1.0       0.012981896123201997          0.2974257326564245 0.8737605927745982 1.0000   
         C         C         1.0       0.027041338799199677          0.2788570074108187 0.8480852010116448 1.0000   
         C         C         1.0       0.055536409643940805          0.2929700804599167 0.8309367492841235 1.0000   
         C         C         1.0       0.07341271361686119           0.32479654155092075          0.8425296016191455 1.0000   
         C         C         1.0       0.060091204836492315          0.3422411922602115 0.8682148075489099 1.0000   
         C         C         1.0       0.030035220900621166          0.32932626681638005          0.8854970048606402 1.0000   
         C         C         1.0       0.9134392952142479  0.250766033148817   0.8917346708446913 1.0000   
         C         C         1.0       0.8803957273383816  0.2413978680991897  0.8754432036314496 1.0000   
         C         C         1.0       0.8797392416031049  0.246646273711331   0.8439457382494594 1.0000   
         C         C         1.0       0.9094266083302547  0.2600646265123801  0.8278279892089214 1.0000   
         C         C         1.0       0.9399507395980647  0.2710392960142951  0.844306645741835  1.0000   
         C         C         1.0       0.9435890438785243  0.26595086555027436           0.8754573895048702 1.0000   
         C         C         1.0       0.8427067333143147  0.23793946870634372           0.8246189911409206 1.0000   
         C         C         1.0       0.8463389608284075  0.12865413640259188           0.7802867910379384 1.0000   
         C         C         1.0       0.8360373142308217  0.13058705960010786           0.8109506413437193 1.0000   
         C         C         1.0       0.8398190923986161  0.16443466639499899           0.8279087990689143 1.0000   
         C         C         1.0       0.8509200848946212  0.19571893384340452           0.8122573643473896 1.0000   
         C         C         1.0       0.8699190577810666  0.18963720168661796           0.7824769730127616 1.0000   
         C         C         1.0       0.8624698157919388  0.15916544303808491           0.7663614293502388 1.0000   
         C         C         1.0       0.8324427848095899  0.2649200484841     0.7960351389029526 1.0000   
         C         C         1.0       0.8432267818673519  0.3019996599339055  0.7944487333426312 1.0000   
         C         C         1.0       0.8367788423714922  0.3241520624726055  0.7696708693994293 1.0000   
         C         C         1.0       0.8153718385285498  0.31149598026382824           0.7449411860467776 1.0000   
         C         C         1.0       0.8042573875602778  0.2748278553888912  0.7455221805251224 1.0000   
         C         C         1.0       0.8119518036592632  0.2523452819264063  0.7705750172680428 1.0000   
         C         C         1.0       0.7714396267430533  0.22940005173540956           0.8376919464228972 1.0000   
         C         C         1.0       0.7369049487577448  0.24426911119840605           0.8471016034142227 1.0000   
         C         C         1.0       0.7357731253624971  0.27547015135163055           0.8655541644576162 1.0000   
         C         C         1.0       0.7694156560050065  0.2934801498827224  0.8719996378679474 1.0000   
         C         C         1.0       0.8037647084227159  0.27993516548761604           0.8633474779183035 1.0000   
         C         C         1.0       0.8049646423509282  0.24707000877706348           0.8443690074799975 1.0000   
         H         H         1.0       0.037579233463973294          0.27681000633785324          0.934405258985641  1.0000   
         H         H         1.0       0.9694002786606952  0.20011511937109278           0.8845296359536428 1.0000   
         H         H         1.0       0.014248984631319184          0.15031015892229427          0.8924536276208382 1.0000   
         H         H         1.0       0.07790380759800031           0.22640490732070867          0.9458653172143359 1.0000   
         H         H         1.0       0.016973434099875284          0.2532090505329944 0.8414232996869697 1.0000   
         H         H         1.0       0.061421254662268575          0.2813252250833769 0.8082431990145676 1.0000   
         H         H         1.0       0.07572222077594093           0.3673054893465933 0.8770309383548486 1.0000   
         H         H         1.0       0.02057946125362364           0.3467716281420848 0.9050382451300758 1.0000   
         H         H         1.0       0.9179583635865484  0.2435776789743978  0.916363611802038  1.0000   
         H         H         1.0       0.8578028609746815  0.22551710398790065           0.8879420179958193 1.0000   
         H         H         1.0       0.9063911468961933  0.25960955580840145           0.8030901203490576 1.0000   
         H         H         1.0       0.961988817889188   0.2816016950020006  0.8305987035054644 1.0000   
         H         H         1.0       0.8206007662733559  0.1068455661795574  0.8209605300310557 1.0000   
         H         H         1.0       0.8215273469588591  0.1664423513217122  0.8480784373944382 1.0000   
         H         H         1.0       0.8809310703862043  0.2150883140555877  0.7698502936831074 1.0000   
         H         H         1.0       0.8681729322701062  0.1598030356134341  0.7412002117223352 1.0000   
         H         H         1.0       0.8517710342564928  0.3156453655505016  0.816244884582948  1.0000   
         H         H         1.0       0.8431331908049703  0.35356421829218343           0.7700562771231775 1.0000   
         H         H         1.0       0.7879918287259062  0.26511023441360726           0.7256197568357332 1.0000   
         H         H         1.0       0.8009920761034787  0.22527809667988077           0.7712834130556919 1.0000   
         H         H         1.0       0.7695905730213054  0.20588819422737245           0.8223686243938985 1.0000   
         H         H         1.0       0.7095292231764495  0.23290803840946406           0.8400326420253417 1.0000   
         H         H         1.0       0.7689609387092593  0.31713207343089844           0.8877568229040775 1.0000   
         H         H         1.0       0.8285206125822558  0.29710814300953464           0.8679336571770111 1.0000   
         C         C         1.0       0.7982863863740274  0.2199122848558711  0.45924710838730487          1.0000   
         C         C         1.0       0.827213458435642   0.20102609465836865           0.4455262701836229 1.0000   
         C         C         1.0       0.8633869769794719  0.2040567501780742  0.455883666278395  1.0000   
         C         C         1.0       0.8700196089961556  0.2336763908444396  0.47655373010949753          1.0000   
         C         C         1.0       0.8399304751710439  0.2498713726115373  0.49197082644922785          1.0000   
         C         C         1.0       0.804399028987165   0.24310152823918701           0.4832940287144735 1.0000   
         H         H         1.0       0.8178891618062014  0.17884117055328216           0.42979774123504133          1.0000   
         H         H         1.0       0.8848637093051219  0.18308100267968863           0.45034782478288504          1.0000   
         H         H         1.0       0.8441348875650718  0.2680501363348344  0.5113753357080155 1.0000   
         H         H         1.0       0.7809103903693344  0.2510331160881971  0.49680083517775653          1.0000   
         C         C         1.0       0.8912168549191216  0.30622987210668823           0.4539948996431596 1.0000   
         C         C         1.0       0.9125478034620061  0.2921080435186601  0.4774664035325478 1.0000   
         C         C         1.0       0.9393812412876367  0.3166634841017994  0.4907062991068048 1.0000   
         C         C         1.0       0.9418552345017127  0.35355855885985826           0.4819631175258699 1.0000   
         C         C         1.0       0.9183591739287229  0.367948673116111   0.4592139469306196 1.0000   
         C         C         1.0       0.894702103388405   0.3442493984272321  0.4451845923130646 1.0000   
         C         C         1.0       0.9096481118053403  0.2493169393334093  0.48653282150520855          1.0000   
         C         C         1.0       0.9444738903421814  0.23174357802810716           0.4705875995462683 1.0000   
         C         C         1.0       0.9765690902819354  0.22372100114047747           0.4872387792890063 1.0000   
         C         C         1.0       0.005583061719506066          0.20694856600584724          0.47271921612225093          1.0000   
         C         C         1.0       0.004710537815316496          0.19568721361919067          0.44220970681367505          1.0000   
         C         C         1.0       0.9755226352261595  0.20939545307929253           0.42358949089987386          1.0000   
         C         C         1.0       0.9458498919780406  0.22452056590231764           0.43876489597506896          1.0000   
         C         C         1.0       0.9081089592801773  0.262404268607451   0.5467844854641    1.0000   
         C         C         1.0       0.9050136827086629  0.2527854078828968  0.5771732172778365 1.0000   
         C         C         1.0       0.9064583718385534  0.2149991330084792  0.5856526263560203 1.0000   
         C         C         1.0       0.9105518651717517  0.18890289108944422           0.5630269828288055 1.0000   
         C         C         1.0       0.9100614941777173  0.19738229387902806           0.5320556872284754 1.0000   
         C         C         1.0       0.9088717667695254  0.23565415853802216           0.5232396275088586 1.0000   
         C         C         1.0       0.9144300706211435  0.20391906892246148           0.6220979433150672 1.0000   
         C         C         1.0       0.03341955260350904           0.20385757782661443          0.6109466225690606 1.0000   
         C         C         1.0       0.014837224931600446          0.23753119365095174          0.6169445040168396 1.0000   
         C         C         1.0       0.9767442829032766  0.23969041141089154           0.6193243680497944 1.0000   
         C         C         1.0       0.9575009364621616  0.2066282833168398  0.6174782903600049 1.0000   
         C         C         1.0       0.9769356680480508  0.1730408567615932  0.6111678442369204 1.0000   
         C         C         1.0       0.013837921818755431          0.1722736906764117 0.6105744091022083 1.0000   
         C         C         1.0       0.8990382770587286  0.1640166342492395  0.6344629268503846 1.0000   
         C         C         1.0       0.870436483287087   0.14680429011466892           0.6192292332879785 1.0000   
         C         C         1.0       0.8621275128361816  0.11024850292457462           0.625701598353707  1.0000   
         C         C         1.0       0.8839496660701118  0.08924761818343718           0.6460795859890972 1.0000   
         C         C         1.0       0.9102553857053964  0.10734062005093943           0.6629558531347833 1.0000   
         C         C         1.0       0.9179437707966803  0.1443160263333242  0.6568815128710264 1.0000   
         C         C         1.0       0.9113522149099237  0.2474575836211767  0.6719928316735374 1.0000   
         C         C         1.0       0.8962030280814837  0.27763231858869786           0.6879993409747251 1.0000   
         C         C         1.0       0.8616607653388255  0.2907961412335413  0.6816643338480946 1.0000   
         C         C         1.0       0.8409441911434251  0.2725251188269657  0.660305329805759  1.0000   
         C         C         1.0       0.8561965062509298  0.24263389116515946           0.643449226315546  1.0000   
         C         C         1.0       0.8921327692600902  0.23183840618957435           0.6475450091805383 1.0000   
         H         H         1.0       0.8723894488249907  0.2892442202468511  0.4418154625579052 1.0000   
         H         H         1.0       0.959283885552715   0.307058670489714   0.5087844538125407 1.0000   
         H         H         1.0       0.9618113080129511  0.3730052990149672  0.4934016223756319 1.0000   
         H         H         1.0       0.8781959465842928  0.3517594562362077  0.42403624000200524          1.0000   
         H         H         1.0       0.9793901293362716  0.22792584647735245           0.5116901698949745 1.0000   
         H         H         1.0       0.02875126729188815           0.19675866259483762          0.487255061819811  1.0000   
         H         H         1.0       0.9746886809860108  0.20404970387024282           0.3981041812449181 1.0000   
         H         H         1.0       0.9225207296182872  0.22745038329687509           0.42303606478453604          1.0000   
         H         H         1.0       0.9090734613958011  0.29118768285139085           0.5438512825413383 1.0000   
         H         H         1.0       0.8992918198223666  0.27396672846619713           0.5949823147895666 1.0000   
         H         H         1.0       0.9118344733097498  0.1601078796688253  0.5685582753002562 1.0000   
         H         H         1.0       0.9122495822814616  0.176471832995221   0.5146107366091943 1.0000   
         H         H         1.0       0.029075725569585043          0.26195178881446535          0.6232283538498069 1.0000   
         H         H         1.0       0.9609951535417666  0.26552462726229537           0.6237617839393719 1.0000   
         H         H         1.0       0.9633864234344856  0.14574506675006643           0.6091459227764459 1.0000   
         H         H         1.0       0.02393973945717165           0.1440532498005542 0.6076660532905568 1.0000   
         H         H         1.0       0.854282905567225   0.1575268452900961  0.5998316792197058 1.0000   
         H         H         1.0       0.8412801172174421  0.09724138799784998           0.6108242556188039 1.0000   
         H         H         1.0       0.9247623588187132  0.0945170501239685  0.683072216704747  1.0000   
         H         H         1.0       0.9395987687320917  0.15814805934300394           0.6689011428255567 1.0000   
         H         H         1.0       0.937660416021103   0.23601086446825498           0.6792376546664645 1.0000   
         H         H         1.0       0.9132418819475653  0.29198482291837685           0.7059653972773668 1.0000   
         H         H         1.0       0.8112656238106194  0.2813718728288971  0.657733705224256  1.0000   
         H         H         1.0       0.8379687526537775  0.23182183165731374           0.6246886203216603 1.0000   
         C         C         1.0       0.318599103057248   0.9330300509880397  0.9400855188374562 1.0000   
         C         C         1.0       0.32550654380639876           0.9282391797091213 0.9088778179614384 1.0000   
         C         C         1.0       0.32169018484567985           0.9590205341693941 0.8898266826290733 1.0000   
         C         C         1.0       0.3028508184060485  0.9912403130493317  0.9003016215031479 1.0000   
         C         C         1.0       0.2997039182987409  0.9965337294425564  0.9320982359681982 1.0000   
         C         C         1.0       0.30796953481159184           0.9670270646141499 0.9525234987665652 1.0000   
         H         H         1.0       0.3351990882660916  0.9012468476005052  0.899225859230071  1.0000   
         H         H         1.0       0.3251691450464655  0.9590950105182311  0.8648390308440035 1.0000   
         H         H         1.0       0.28670478638155983           0.020554165452104867         0.9410638016700708 1.0000   
         H         H         1.0       0.3023581829122475  0.9654356963975068  0.9770805716048871 1.0000   
         C         C         1.0       0.22768670535936833           0.043045165116163187         0.9142801794998324 1.0000   
         C         C         1.0       0.25549648666424807           0.05049243098197986          0.8930014862494957 1.0000   
         C         C         1.0       0.25536150370988564           0.08711088742347317          0.8813273965895666 1.0000   
         C         C         1.0       0.23174612154283833           0.11404608526586313          0.8913250386779634 1.0000   
         C         C         1.0       0.20479456187042466           0.10565915296152806          0.9112860869132247 1.0000   
         C         C         1.0       0.20446744914796294           0.07090468414285689          0.925375953355219  1.0000   
         C         C         1.0       0.2821229694545186  0.019367445778715853         0.8771589931986764 1.0000   
         C         C         1.0       0.2514760184221712  0.9958174035359931  0.8592926470199662 1.0000   
         C         C         1.0       0.23650502306702714           0.007046596646407499         0.8306027294928692 1.0000   
         C         C         1.0       0.20440129714463598           0.994601412005554  0.8192626911351825 1.0000   
         C         C         1.0       0.18497037902580263           0.966736289386294  0.8359132789251194 1.0000   
         C         C         1.0       0.2012215869775912  0.9499145052117614  0.8617526965252262 1.0000   
         C         C         1.0       0.2332852787195865  0.9641731726347194  0.8727048776873967 1.0000   
         C         C         1.0       0.3398350866244767  0.061022493435689995         0.8741657518420769 1.0000   
         C         C         1.0       0.37341498804076295           0.07201989037648615          0.8611842262313634 1.0000   
         C         C         1.0       0.38037979778492237           0.06342048282898638          0.8295887218501535 1.0000   
         C         C         1.0       0.35187352734568056           0.0473180711784178 0.8127864644480979 1.0000   
         C         C         1.0       0.32403991363844503           0.028265971562996706         0.8283947363006625 1.0000   
         C         C         1.0       0.3154285272888159  0.03774539183873005           0.8577712931925113 1.0000   
         C         C         1.0       0.4189709877343617  0.07591407023768526           0.8142386077561744 1.0000   
         C         C         1.0       0.42045710153471955           0.18648300521125405          0.7770090750958047 1.0000   
         C         C         1.0       0.43372141318044544           0.1825007858099852 0.8058460922519297 1.0000   
         C         C         1.0       0.4283556046547926  0.14658789814365836           0.8199624188420813 1.0000   
         C         C         1.0       0.4109586769845859  0.11825149171503502           0.8055127724986548 1.0000   
         C         C         1.0       0.3904364454923516  0.12558931942739182           0.7788537099418553 1.0000   
         C         C         1.0       0.400364743237808   0.15939860971059527           0.7628998395278073 1.0000   
         C         C         1.0       0.431796319258821   0.05422835892883926           0.7832387403049287 1.0000   
         C         C         1.0       0.4223329431819098  0.016637798881064203         0.7768321143607685 1.0000   
         C         C         1.0       0.4378796858616176  0.9959894678361156  0.7526014766483979 1.0000   
         C         C         1.0       0.4595787947935182  0.014153826903377853         0.7302750805273694 1.0000   
         C         C         1.0       0.4693874017447669  0.05076716353953725           0.735878304177004  1.0000   
         C         C         1.0       0.45695202172773414           0.06879593268636652          0.7624667762737032 1.0000   
         C         C         1.0       0.48726304232062645           0.08257599406103422          0.8278792534519365 1.0000   
         C         C         1.0       0.5187159385863489  0.06518543921846454           0.8368602683541005 1.0000   
         C         C         1.0       0.5189390952941437  0.030706134569093546         0.8515549373131202 1.0000   
         C         C         1.0       0.4861640366705323  0.014472445036618709         0.8603561031600431 1.0000   
         C         C         1.0       0.45360745819374804           0.030154826748068908         0.8504731368215201 1.0000   
         C         C         1.0       0.4533654919798729  0.06490091741683868           0.8354853467035299 1.0000   
         H         H         1.0       0.2206510018910596  0.013172298257167148         0.9223279287392908 1.0000   
         H         H         1.0       0.2732892233402121  0.09497873372125709           0.8628392270447014 1.0000   
         H         H         1.0       0.2359597799954802  0.1421954258100533  0.8795672049391207 1.0000   
         H         H         1.0       0.18471813966096062           0.06558562557570236          0.9446232081959566 1.0000   
         H         H         1.0       0.251557664377111   0.028281361383696746         0.8181553465432039 1.0000   
         H         H         1.0       0.19185561382770952           0.007225777615195161         0.7986186633813124 1.0000   
         H         H         1.0       0.1865506425289351  0.926047779267716   0.8719767592176435 1.0000   
         H         H         1.0       0.24235342409406038           0.9516098552992156 0.8942448997028166 1.0000   
         H         H         1.0       0.333670313740126   0.06526966165344161           0.8980452114017323 1.0000   
         H         H         1.0       0.39186593150177174           0.08808549353385686          0.8756604007189436 1.0000   
         H         H         1.0       0.3554820823522145  0.04324501283073223           0.7873745000539358 1.0000   
         H         H         1.0       0.3097914706774872  0.008653946591642647         0.8118264263852218 1.0000   
         H         H         1.0       0.4502825650459112  0.20349758806004825           0.8171894636608528 1.0000   
         H         H         1.0       0.44031627159716874           0.14102526353455702          0.844011127433605  1.0000   
         H         H         1.0       0.37561199908599835           0.10145629606289774          0.7689280085335977 1.0000   
         H         H         1.0       0.3913195400204886  0.16356559509027813           0.7394174700001394 1.0000   
         H         H         1.0       0.4028635129235117  0.0045454243003764105        0.7935351833785316 1.0000   
         H         H         1.0       0.42894863581790826           0.966624036218352  0.7513702735635845 1.0000   
         H         H         1.0       0.4844574630857923  0.06679755995583414           0.7186493244280286 1.0000   
         H         H         1.0       0.46327164934747544           0.0969878422398982 0.7638094426187882 1.0000   
         H         H         1.0       0.4879013739416878  0.10949642955295236           0.8153006593327614 1.0000   
         H         H         1.0       0.5453584151377635  0.0780965692683544  0.8297010685957164 1.0000   
         H         H         1.0       0.4855500195685521  0.9875964116779129  0.8718168090602159 1.0000   
         H         H         1.0       0.4289870981605368  0.012691448132031713         0.8523207576530534 1.0000   
         C         C         1.0       0.45063005624903923           0.08329429320924397          0.4504794698637823 1.0000   
         C         C         1.0       0.41856522936862806           0.09825010140800972          0.43666584094526284          1.0000   
         C         C         1.0       0.3837541919610264  0.08633961283676506           0.44667673744123637          1.0000   
         C         C         1.0       0.3797133689425904  0.06103812629225658           0.4713188621944976 1.0000   
         C         C         1.0       0.41146738774846703           0.04777362728995849          0.4848995929403107 1.0000   
         C         C         1.0       0.44564246930400786           0.060566467382030975         0.4757808103317611 1.0000   
         H         H         1.0       0.42283965092075027           0.11404920098381921          0.41733644335036046          1.0000   
         H         H         1.0       0.358673849697857   0.09764426025442607           0.4368571335870229 1.0000   
         H         H         1.0       0.40869213211688654           0.03143757301181127          0.5045928433114806 1.0000   
         H         H         1.0       0.4687458902919925  0.05012729410851735           0.4875678027034318 1.0000   
         C         C         1.0       0.36278917332000693           0.9815954880683325 0.45949222590731126          1.0000   
         C         C         1.0       0.3386030069765012  0.9999142378204143  0.4800462412771913 1.0000   
         C         C         1.0       0.30726429363726937           0.9790850333058168 0.49080295468179935          1.0000   
         C         C         1.0       0.3051684539695785  0.942933289766006   0.4843357555271441 1.0000   
         C         C         1.0       0.3286453916404592  0.9249139730875722  0.4625070723721816 1.0000   
         C         C         1.0       0.358333380294343   0.9444809185274639  0.4509718379436149 1.0000   
         C         C         1.0       0.34071544761327693           0.04434855387879977          0.482702862916265  1.0000   
         C         C         1.0       0.3040718245351269  0.054768649515131385         0.4638111748539904 1.0000   
         C         C         1.0       0.2722585829189384  0.06569278019496494           0.48012668948427034          1.0000   
         C         C         1.0       0.2414629663216859  0.0781939424182243  0.46642509950392597          1.0000   
         C         C         1.0       0.24220165284566003           0.08376856109321684          0.4341326217951087 1.0000   
         C         C         1.0       0.27223990186961766           0.07025806026825765          0.4159690769029936 1.0000   
         C         C         1.0       0.30076214974079046           0.05445801683652696          0.43151194749019794          1.0000   
         C         C         1.0       0.34415457922176484           0.03733863194211828          0.5424468641154174 1.0000   
         C         C         1.0       0.34385670482156494           0.052115026217558036         0.5724376054188832 1.0000   
         C         C         1.0       0.3463094472217265  0.09085428138112572           0.5775928211834086 1.0000   
         C         C         1.0       0.3339646851865626  0.11275652306310513           0.5527533638029428 1.0000   
         C         C         1.0       0.3300033243022362  0.09860879346220486           0.5236129793775277 1.0000   
         C         C         1.0       0.33858644630912293           0.06070905699574669          0.5167113419603575 1.0000   
         C         C         1.0       0.35074509489811717           0.10380211583865595          0.6146261657747365 1.0000   
         C         C         1.0       0.2315978678344114  0.09483980406157189           0.6357953357322081 1.0000   
         C         C         1.0       0.2540275406012144  0.06242550794417068           0.6357224078366064 1.0000   
         C         C         1.0       0.29186801369048826           0.06519723196429328          0.6324554374762587 1.0000   
         C         C         1.0       0.30712951778800635           0.09947893640443106          0.6254118574064484 1.0000   
         C         C         1.0       0.28319739790068    0.13037175947293145           0.6236360187590001 1.0000   
         C         C         1.0       0.2457151775863622  0.12958756335572952           0.630851160528967  1.0000   
         C         C         1.0       0.36440248970456157           0.1450967965828922 0.6220358024716015 1.0000   
         C         C         1.0       0.3875068029369936  0.1641071709926203  0.6002400153835471 1.0000   
         C         C         1.0       0.39483246668377775           0.20165203388191766          0.6028320437096765 1.0000   
         C         C         1.0       0.3856063771301086  0.22022228015945067           0.6313684744796434 1.0000   
         C         C         1.0       0.37050073934773387           0.19948927307211606          0.655961190269731  1.0000   
         C         C         1.0       0.3597137554711151  0.16302294946861573           0.6511723331467746 1.0000   
         C         C         1.0       0.3745974130891742  0.059501164970086284         0.6606929153884956 1.0000   
         C         C         1.0       0.40232840853259805           0.038032222669452054         0.6728950391753173 1.0000   
         C         C         1.0       0.43734023514181075           0.03229929690410138          0.6569109850862993 1.0000   
         C         C         1.0       0.4392644049958249  0.04596420229972131           0.6277789690530733 1.0000   
         C         C         1.0       0.41288961233249216           0.06780769150186416          0.6141618772717364 1.0000   
         C         C         1.0       0.3794187917531041  0.07489864006708657           0.6303946534890756 1.0000   
         H         H         1.0       0.388848366187722   0.9941643791759198  0.4501306848801584 1.0000   
         H         H         1.0       0.28797184409213955           0.9913314167788655 0.5074770204907659 1.0000   
         H         H         1.0       0.28328513240862124           0.9240526852624049 0.49172497628304723          1.0000   
         H         H         1.0       0.3773763759584421  0.9356875575868936  0.4328709120387068 1.0000   
         H         H         1.0       0.26977701941170124           0.05915820225838209          0.506275369962563  1.0000   
         H         H         1.0       0.21897136606071577           0.0829440308971705 0.4834220949122724 1.0000   
         H         H         1.0       0.2707269085359015  0.06516530108544183           0.39142841156442415          1.0000   
         H         H         1.0       0.32209392290129846           0.04126170440146937          0.41728512491343783          1.0000   
         H         H         1.0       0.3487942733965202  0.00927171903601609           0.5400795996820019 1.0000   
         H         H         1.0       0.34917191011373916           0.02968981286883432          0.5899366396956229 1.0000   
         H         H         1.0       0.32402018780920744           0.1415580585238534 0.5568442033340596 1.0000   
         H         H         1.0       0.326258486450179   0.12031252718417673           0.5047866197977283 1.0000   
         H         H         1.0       0.24614078293338593           0.034443843967235876         0.6421297167209103 1.0000   
         H         H         1.0       0.3075490154679384  0.03864913445571472           0.630860268148108  1.0000   
         H         H         1.0       0.2929171857816644  0.15709484442066213           0.6177992612020108 1.0000   
         H         H         1.0       0.2292496880445753  0.15564240580811406           0.6301579716222091 1.0000   
         H         H         1.0       0.3963905132723652  0.14917669999106176           0.5789864794978142 1.0000   
         H         H         1.0       0.40712028292165175           0.21780955612660202          0.583754456606563  1.0000   
         H         H         1.0       0.367662789981917   0.21256953951763835           0.6794946548411024 1.0000   
         H         H         1.0       0.3527753064544577  0.14624463526527842           0.6710194065873372 1.0000   
         H         H         1.0       0.3488209381010912  0.061854048651554416         0.673453012739956  1.0000   
         H         H         1.0       0.3953883644681691  0.022721370134119345         0.6946963120460239 1.0000   
         H         H         1.0       0.46420045878304095           0.03890721747163761          0.6156312825275297 1.0000   
         H         H         1.0       0.4204914400782234  0.08128210544016246           0.5938447789168579 1.0000   
         C         C         1.0       0.8750880331340195  0.9708433341410824  0.8888893781206652 1.0000   
         C         C         1.0       0.8681869972829619  0.997223599806884   0.8654570376446381 1.0000   
         C         C         1.0       0.8900241467745457  0.0011106086445307195        0.8395975196983535 1.0000   
         C         C         1.0       0.9161229175310216  0.9742756104990848  0.8335885082280223 1.0000   
         C         C         1.0       0.9229639642445853  0.9466103472524917  0.8551889762311233 1.0000   
         C         C         1.0       0.905100155441789   0.9458076890144509  0.8836124386364902 1.0000   
         H         H         1.0       0.8474206771744146  0.01682992373447556           0.8710766025112413 1.0000   
         H         H         1.0       0.883307294244835   0.023656470962003073         0.8248165485645115 1.0000   
         H         H         1.0       0.9453793793749372  0.9268071218802861  0.8517688325311824 1.0000   
         H         H         1.0       0.9147968931638575  0.9276535991178533  0.9012295054219434 1.0000   
         C         C         1.0       0.9877958803159799  0.022918240643420518         0.8333335553227    1.0000   
         C         C         1.0       0.9832742275525048  0.9883112892436517  0.8186140628645038 1.0000   
         C         C         1.0       0.013948128178390196          0.9638715325074074 0.8219219089121432 1.0000   
         C         C         1.0       0.04611983628139793           0.9755269579344727 0.8369793356338597 1.0000   
         C         C         1.0       0.04972505440338226           0.012542269633838421         0.8470042906502416 1.0000   
         C         C         1.0       0.02133822801454066           0.036467178041661  0.8431125051507408 1.0000   
         C         C         1.0       0.9451565908320846  0.9737707343284718  0.8049820596939846 1.0000   
         C         C         1.0       0.9265649988819015  0.9992485519605384  0.7788409893698356 1.0000   
         C         C         1.0       0.9377666423955752  0.03576505720825707           0.7717473370307969 1.0000   
         C         C         1.0       0.9123810972295799  0.06113076578928567           0.7610527123052179 1.0000   
         C         C         1.0       0.878854978397196   0.04954543131594091           0.7511386819650705 1.0000   
         C         C         1.0       0.8695031267695683  0.012184205846103245         0.7531373325604275 1.0000   
         C         C         1.0       0.8938355413444306  0.9879589089708266  0.7666042496384459 1.0000   
         C         C         1.0       0.9419048943268595  0.9012132102906011  0.7925388044513142 1.0000   
         C         C         1.0       0.9589664655403591  0.8686190832749421  0.7793175620264245 1.0000   
         C         C         1.0       0.9895246249151801  0.8727257873590639  0.7590229933588851 1.0000   
         C         C         1.0       0.994719498989258   0.908808984577979   0.7468675824045081 1.0000   
         C         C         1.0       0.973856690697549   0.939105572321918   0.7561116547958365 1.0000   
         C         C         1.0       0.9520245519262043  0.9369975152292753  0.7831142330387739 1.0000   
         C         C         1.0       0.019891527840717016          0.8394714977466624 0.7570058414694607 1.0000   
         C         C         1.0       0.1110897116178644  0.8966431376244541  0.801893874192525  1.0000   
         C         C         1.0       0.08115176693999504           0.8837293620746441 0.8190561407220972 1.0000   
         C         C         1.0       0.0524689442387567  0.8692079730359824  0.804247001781144  1.0000   
         C         C         1.0       0.05287887620833098           0.861759877600701  0.7727007132272515 1.0000   
         C         C         1.0       0.08196454483310034           0.8767884032503451 0.7559750244073378 1.0000   
         C         C         1.0       0.11120331151326979           0.8937400421088519 0.7694950508710797 1.0000   
         C         C         1.0       0.03103406732161962           0.8253550106317662 0.7221247702732283 1.0000   
         C         C         1.0       0.012006367793961692          0.8378786924961654 0.6956972010855067 1.0000   
         C         C         1.0       0.020820701370941608          0.8266792502049293 0.6660576609358468 1.0000   
         C         C         1.0       0.05064643776039546           0.8032652952952237 0.6596136670279259 1.0000   
         C         C         1.0       0.07184026265105747           0.7911467123935519 0.6854251900248302 1.0000   
         C         C         1.0       0.06163600571406147           0.8019907104306421 0.715731036690829  1.0000   
         C         C         1.0       0.029161616538347923          0.780604808377497  0.7947580490342498 1.0000   
         C         C         1.0       0.019054890158989313          0.747627830599457  0.8078092957707277 1.0000   
         C         C         1.0       0.986096427231454   0.7327748573116911  0.7972917413601364 1.0000   
         C         C         1.0       0.9666934592264183  0.7488521544477964  0.774097572357498  1.0000   
         C         C         1.0       0.9794829115924992  0.7816056082669672  0.7607711050287088 1.0000   
         C         C         1.0       0.00988007982100525           0.8004658770273029 0.7716112937333677 1.0000   
         H         H         1.0       0.9671144809958457  0.04350373412815278           0.8318994629841984 1.0000   
         H         H         1.0       0.01539786308339286           0.93504143108127   0.8148443336811718 1.0000   
         H         H         1.0       0.06720425118138018           0.9546913105670594 0.8394731118515621 1.0000   
         H         H         1.0       0.02454765749256005           0.06440632798674129          0.8532174908417564 1.0000   
         H         H         1.0       0.9645477040559103  0.045353170462664405         0.7769912143025428 1.0000   
         H         H         1.0       0.9237238224881268  0.08715006161420269           0.7516237273861176 1.0000   
         H         H         1.0       0.8432687329622324  0.0018989328816030329        0.7458781601982766 1.0000   
         H         H         1.0       0.8845736854923663  0.9601028545239608  0.77062054779933   1.0000   
         H         H         1.0       0.9210457856559146  0.8966798291542238  0.8094144229647218 1.0000   
         H         H         1.0       0.94963989041682    0.8412535145041713  0.7866894422309553 1.0000   
         H         H         1.0       0.016470084790631168          0.9128167862346434 0.7291835955957041 1.0000   
         H         H         1.0       0.9821461418961636  0.9665651703981838  0.7498206878309713 1.0000   
         H         H         1.0       0.08246108689473886           0.8863066821412552 0.8451176302367646 1.0000   
         H         H         1.0       0.028617246410780783          0.8584558674096052 0.8173718598864737 1.0000   
         H         H         1.0       0.08685048848936994           0.8754679888142538 0.7301775738451604 1.0000   
         H         H         1.0       0.13211512152131366           0.9070642162854402 0.7550085255721254 1.0000   
         H         H         1.0       0.9875175895469285  0.855598404859132   0.6985683811106194 1.0000   
         H         H         1.0       0.0019270407245595145         0.833554910530907  0.6480325144578238 1.0000   
         H         H         1.0       0.09724288348466192           0.7753603043970486 0.6805963435418224 1.0000   
         H         H         1.0       0.08074070320989502           0.7972315540724263 0.7339008583964362 1.0000   
         H         H         1.0       0.055906292834305926          0.7912442958438248 0.8025413662606802 1.0000   
         H         H         1.0       0.03442080643205081           0.736153630463602  0.8270083650998649 1.0000   
         H         H         1.0       0.9393308231261829  0.7381505582361607  0.7698934917476025 1.0000   
         H         H         1.0       0.961301006227781   0.79120555084377    0.7430073246228325 1.0000   
         C         C         1.0       0.07099295633860336           0.8483477900478227 0.4425969977149013 1.0000   
         C         C         1.0       0.08337353137913261           0.8790986987434941 0.42594529937473263          1.0000   
         C         C         1.0       0.06933100959286742           0.9131546560240565 0.4314423446392056 1.0000   
         C         C         1.0       0.043457257800888716          0.9215165341233481 0.45449444869210914          1.0000   
         C         C         1.0       0.032078448930738634          0.8914849119699166 0.47205633250143236          1.0000   
         C         C         1.0       0.04410207962639068           0.856418731500665  0.4665006130732695 1.0000   
         H         H         1.0       0.10599592891345266           0.8737766238534678 0.4095297593296669 1.0000   
         H         H         1.0       0.079609144063709   0.9348816556355567  0.4143752878661749 1.0000   
         H         H         1.0       0.0070731231219440804         0.8954178459139257 0.4859143342894588 1.0000   
         H         H         1.0       0.033977405973279806          0.8334302279742677 0.4812045359961578 1.0000   
         C         C         1.0       0.9599315959148325  0.9306157089553193  0.4384214958353453 1.0000   
         C         C         1.0       0.9778318400275767  0.9616053139154953  0.4502350295406824 1.0000   
         C         C         1.0       0.956230172030781   0.9936694322530402  0.4558390751662229 1.0000   
         C         C         1.0       0.9183450254048338  0.9932229714299987  0.45494089514331915          1.0000   
         C         C         1.0       0.9002811939900939  0.9595304996384755  0.44803570290831946          1.0000   
         C         C         1.0       0.9225963073498298  0.9281517874978543  0.4393896863609677 1.0000   
         C         C         1.0       0.021844490320652943          0.9612146760147264 0.45865066651518394          1.0000   
         C         C         1.0       0.037759175728652394          0.9936160259829527 0.43532444726960207          1.0000   
         C         C         1.0       0.051311575715659474          0.026973857082293717         0.44775015899676135          1.0000   
         C         C         1.0       0.07350058761690148           0.05067347364447361          0.42968731782866654          1.0000   
         C         C         1.0       0.0751414579859242  0.04590390081442042           0.39813271274403095          1.0000   
         C         C         1.0       0.057268684274336845          0.01657785227608688          0.38433521519853364          1.0000   
         C         C         1.0       0.0371787841041884  0.9907779333447189  0.4029112544465221 1.0000   
         C         C         1.0       0.9988493385884948  0.9642413182975914  0.5165354904331345 1.0000   
         C         C         1.0       0.005084436221527211          0.9705252680441676 0.5473659484135347 1.0000   
         C         C         1.0       0.038691216843282694          0.9796689964124775 0.5607451273148101 1.0000   
         C         C         1.0       0.0671146208018305  0.9861660402633917  0.5396445399075696 1.0000   
         C         C         1.0       0.06168637152108736           0.9787797688813626 0.5082468255036886 1.0000   
         C         C         1.0       0.02703525862846967           0.9692474349371984 0.4951890119525479 1.0000   
         C         C         1.0       0.04420604700846753           0.9787141003666864 0.5978455630095088 1.0000   
         C         C         1.0       0.9440390129504208  0.012449531657994672         0.6494337562692432 1.0000   
         C         C         1.0       0.9672407398179947  0.9855015454536298  0.6608627336471663 1.0000   
         C         C         1.0       0.9972884474673605  0.974029782834535   0.6444056615605677 1.0000   
         C         C         1.0       0.00860857598554654           0.9915445651998624 0.6166944394013798 1.0000   
         C         C         1.0       0.9849259706848075  0.019725358355442868         0.6062472735057218 1.0000   
         C         C         1.0       0.953467265481799   0.029515341529296357         0.6222247510397696 1.0000   
         C         C         1.0       0.07699826093486961           0.007559760779300095         0.6083622094635036 1.0000   
         C         C         1.0       0.11463656304383929           0.9975619980074277 0.6103614379297982 1.0000   
         C         C         1.0       0.14366145001877695           0.02212669176069637          0.6121968740799906 1.0000   
         C         C         1.0       0.1361445349215138  0.06035454387141059           0.6128224008540615 1.0000   
         C         C         1.0       0.10026900560493757           0.0710710910677661 0.6115882678591592 1.0000   
         C         C         1.0       0.07171569241810594           0.04640680628223248          0.6089271352040825 1.0000   
         C         C         1.0       0.0684788573043289  0.9245896609984441  0.6316946920172234 1.0000   
         C         C         1.0       0.08229615134925017           0.8891266561600154 0.6365457678253825 1.0000   
         C         C         1.0       0.0789169307192723  0.8619910282167644  0.6138475104063662 1.0000   
         C         C         1.0       0.06357126173961314           0.8709276538440013 0.5863154647247628 1.0000   
         C         C         1.0       0.050480799356454   0.9071011880686316  0.582600168979099  1.0000   
         C         C         1.0       0.05567836091227263           0.935893682095093  0.6041679795559967 1.0000   
         H         H         1.0       0.9764975480472525  0.9081539123081286  0.43066236315082573          1.0000   
         H         H         1.0       0.9706419777844943  0.017591791088020337         0.4644944804989932 1.0000   
         H         H         1.0       0.9034374489479597  0.01721663909928539           0.46017249677002964          1.0000   
         H         H         1.0       0.9114771776735693  0.902213450094886   0.4292724498053989 1.0000   
         H         H         1.0       0.04804592117258366           0.0331987433624914 0.4719304041917799 1.0000   
         H         H         1.0       0.08763047892606135           0.07252785865852629          0.4415182358024611 1.0000   
         H         H         1.0       0.057755746935169494          0.010656310007915781         0.3591365757560675 1.0000   
         H         H         1.0       0.02310955439130158           0.9675997959439747 0.39171789458269646          1.0000   
         H         H         1.0       0.9717821669025338  0.9563165809218203  0.508287428300193  1.0000   
         H         H         1.0       0.9833975054639446  0.9611050236872136  0.5630471012374351 1.0000   
         H         H         1.0       0.0934431363777144  0.9903988908510971  0.5479841649595052 1.0000   
         H         H         1.0       0.08449527323103423           0.983995742869381  0.49261349689379896          1.0000   
         H         H         1.0       0.9585756460857369  0.9727338625946134  0.6832499102980262 1.0000   
         H         H         1.0       0.013071664988084875          0.9522405689171218 0.6549821798662631 1.0000   
         H         H         1.0       0.9903581640031515  0.033220029402922124         0.584857372385996  1.0000   
         H         H         1.0       0.9349676111753414  0.05316008426551022           0.6116476559970361 1.0000   
         H         H         1.0       0.12145668115379449           0.968065515204637  0.6044626233700249 1.0000   
         H         H         1.0       0.173283954154011   0.013279398192648229         0.6103439344865326 1.0000   
         H         H         1.0       0.09405812713013972           0.10065829694808492          0.6091592245145127 1.0000   
         H         H         1.0       0.04499972271084007           0.057011727478442964         0.6066101017156548 1.0000   
         H         H         1.0       0.07475718705561718           0.9446711272998521 0.6489861445047881 1.0000   
         H         H         1.0       0.0971166391099969  0.8844593405923681  0.6576988557587319 1.0000   
         H         H         1.0       0.06471153233551186           0.8525173276220733 0.5670231019405108 1.0000   
         H         H         1.0       0.04304715548882321           0.9123119630482959 0.5574759273402129 1.0000   
         C         C         1.0       0.3719395572872855  0.33406401232879773           0.895294479950889  1.0000   
         C         C         1.0       0.3764133563371913  0.304680483549996   0.8755277265211864 1.0000   
         C         C         1.0       0.3530667951036005  0.29726525293104483           0.8518420643769418 1.0000   
         C         C         1.0       0.3280043120817416  0.32552940428087196           0.844703681858283  1.0000   
         C         C         1.0       0.32224743873357165           0.3544756917490768 0.865420745556945  1.0000   
         C         C         1.0       0.3447154499468707  0.35968070470634456           0.8915142042559302 1.0000   
         H         H         1.0       0.3967053883993855  0.2829727566784794  0.8782065249070533 1.0000   
         H         H         1.0       0.35614752497745733           0.27016220066115193          0.8376086303540226 1.0000   
         H         H         1.0       0.29977514573207753           0.37549194163767413          0.8632162260950222 1.0000   
         H         H         1.0       0.3423141333599896  0.3822861371538618  0.9089664356221024 1.0000   
         C         C         1.0       0.26892752699272654           0.26340750092208204          0.8309992424492373 1.0000   
         C         C         1.0       0.26868036898903414           0.3033978171797015 0.8247934272425174 1.0000   
         C         C         1.0       0.23832879111166425           0.3241502629428786 0.8341637608690842 1.0000   
         C         C         1.0       0.20671158795914502           0.3059928148783665 0.8449982264322539 1.0000   
         C         C         1.0       0.20482363718797264           0.26811502306891793          0.8485365870466449 1.0000   
         C         C         1.0       0.2358783644700479  0.24711085789089907           0.8401158759647774 1.0000   
         C         C         1.0       0.3056070968586847  0.3238270640254029  0.8114444294558302 1.0000   
         C         C         1.0       0.33127145866460705           0.30570113925465414          0.7850418597094669 1.0000   
         C         C         1.0       0.31940326361689003           0.2760287052914038 0.7678150377065543 1.0000   
         C         C         1.0       0.34362923965645215           0.2551379302071227 0.7502945975333646 1.0000   
         C         C         1.0       0.38017809500469885           0.26442048393646933          0.7506132159779055 1.0000   
         C         C         1.0       0.39389810765135547           0.29399900429833753          0.7643995655287213 1.0000   
         C         C         1.0       0.36884663112132154           0.31557781317184325          0.7819988730697869 1.0000   
         C         C         1.0       0.31117010851992044           0.3949813823427805 0.7962980767275479 1.0000   
         C         C         1.0       0.29309458976663405           0.4251969749346914 0.7852831808500208 1.0000   
         C         C         1.0       0.26218810834312783           0.42153169871060747          0.7655078018985282 1.0000   
         C         C         1.0       0.2554460495161469  0.3865201752165536  0.7524496776976918 1.0000   
         C         C         1.0       0.2707831503382473  0.35602044172298936           0.7672021094022887 1.0000   
         C         C         1.0       0.2954320282786394  0.3594127708730836  0.7916892468008588 1.0000   
         C         C         1.0       0.23307656597024337           0.4541661219860564 0.7578800244152135 1.0000   
         C         C         1.0       0.13524685381405793           0.3972701885835601 0.795378809892569  1.0000   
         C         C         1.0       0.16142062368323948           0.40993403297237213          0.8156907106730147 1.0000   
         C         C         1.0       0.19131958929356263           0.4289265919249698 0.8032366727265173 1.0000   
         C         C         1.0       0.19597878117350317           0.43436036534188993          0.7709079571132658 1.0000   
         C         C         1.0       0.16875930193959995           0.4189786452212326 0.7516206350356687 1.0000   
         C         C         1.0       0.1428221549997148  0.3951005653742194  0.7640342391036878 1.0000   
         C         C         1.0       0.2314937455614893  0.465846242090701   0.7226566362949097 1.0000   
         C         C         1.0       0.25633908778746667           0.4531828510440962 0.6993767724145171 1.0000   
         C         C         1.0       0.2538059531036689  0.467070256272134   0.6701788767145946 1.0000   
         C         C         1.0       0.22721211559483817           0.49200123140481367          0.6622027511390215 1.0000   
         C         C         1.0       0.20236168330691737           0.5059200336071559 0.6856804390845898 1.0000   
         C         C         1.0       0.20471017569735847           0.4934901770653944 0.7154894846811037 1.0000   
         C         C         1.0       0.2167281105578194  0.5115709368872923  0.795225969840805  1.0000   
         C         C         1.0       0.228840010843626   0.5407174209763427  0.8128803261338439 1.0000   
         C         C         1.0       0.26183536383497047           0.5596807922428492 0.8076780866621488 1.0000   
         C         C         1.0       0.2834007210342594  0.5481456159730778  0.7826410589343924 1.0000   
         C         C         1.0       0.2752080789142686  0.5151246367356728  0.7669564809580474 1.0000   
         C         C         1.0       0.24108123819269006           0.4952382460191832 0.7743224239774922 1.0000   
         H         H         1.0       0.28961620802035176           0.24399180219410754          0.8230146912914734 1.0000   
         H         H         1.0       0.23841528572182955           0.3541760292401374 0.8348407084183512 1.0000   
         H         H         1.0       0.18399008873899614           0.32163146770343237          0.8541892131410508 1.0000   
         H         H         1.0       0.23499143473588235           0.2177615891385999 0.8367185485740304 1.0000   
         H         H         1.0       0.29138616033490633           0.26802103286290313          0.7661956534153179 1.0000   
         H         H         1.0       0.33299964211030625           0.23049068258113187          0.7399112271346796 1.0000   
         H         H         1.0       0.4233458599267784  0.30152147772782717           0.7635653294326099 1.0000   
         H         H         1.0       0.3802936785612837  0.3387268264329757  0.7967185961425757 1.0000   
         H         H         1.0       0.3328255980180647  0.3959571896715903  0.8127759666672301 1.0000   
         H         H         1.0       0.30724902361259077           0.4512455501875917 0.7913750817314523 1.0000   
         H         H         1.0       0.23258209614131353           0.37961538428690805          0.7386027127364483 1.0000   
         H         H         1.0       0.25975583360331694           0.3315728638554784 0.7567420120286675 1.0000   
         H         H         1.0       0.1568380402498431  0.4102578598131905  0.841143313122777  1.0000   
         H         H         1.0       0.2102039285996913  0.4415907522143032  0.8192532218220225 1.0000   
         H         H         1.0       0.17340255500927423           0.41671185973760516          0.7256223257453241 1.0000   
         H         H         1.0       0.12674739429574694           0.3790584547911807 0.747640841546879  1.0000   
         H         H         1.0       0.27624417889528946           0.4308585061778886 0.7039218375506073 1.0000   
         H         H         1.0       0.2707975139061174  0.4538138065060487  0.652448041296462  1.0000   
         H         H         1.0       0.1770921512680612  0.5169317490206813  0.678547349450785  1.0000   
         H         H         1.0       0.18173018433731372           0.5011366441761351 0.7311887603986503 1.0000   
         H         H         1.0       0.18949950120723716           0.5030844845527269 0.7987754981631423 1.0000   
         H         H         1.0       0.21165914289789517           0.5502471598922831 0.829377354163216  1.0000   
         H         H         1.0       0.3094030212733488  0.5632136778662433  0.7794382216192853 1.0000   
         H         H         1.0       0.292623425905598   0.5022207142165147  0.7503694808767198 1.0000   
         C         C         1.0       0.15891486264148053           0.43588777088251984          0.4540234904490945 1.0000   
         C         C         1.0       0.1525584661436298  0.4081794165947028  0.4318595454851385 1.0000   
         C         C         1.0       0.16025186494622104           0.3717010498236169 0.43827628464509816          1.0000   
         C         C         1.0       0.1807641926896886  0.36172320122491736           0.4635828639764236 1.0000   
         C         C         1.0       0.18432989621292895           0.3883378358934035 0.48713097246929793          1.0000   
         C         C         1.0       0.17171482579843392           0.42538790521777997          0.4828452617140424 1.0000   
         H         H         1.0       0.1428614577743763  0.41835882581383144           0.4090462401119924 1.0000   
         H         H         1.0       0.15458712450475298           0.35508133574334083          0.41774876922259613          1.0000   
         H         H         1.0       0.199264214701341   0.3815878776971929  0.5061294303661933 1.0000   
         H         H         1.0       0.1805906108876787  0.44757918136197067           0.49929661746807746          1.0000   
         C         C         1.0       0.25899270636942123           0.36047364289529765          0.4416786765769978 1.0000   
         C         C         1.0       0.24407222664483452           0.32754456764995915          0.45075050472147754          1.0000   
         C         C         1.0       0.26724285693177335           0.29518996429987704          0.44946831940895166          1.0000   
         C         C         1.0       0.30413730056836624           0.29738383402281277          0.445813424731315  1.0000   
         C         C         1.0       0.31781805320752243           0.3319742382205468 0.43777539152738393          1.0000   
         C         C         1.0       0.2957760947205916  0.3626103944267139  0.4342773095314203 1.0000   
         C         C         1.0       0.20398449216562822           0.32104352832197597          0.46530460638169535          1.0000   
         C         C         1.0       0.1856901835991884  0.2892758237642322  0.4442324011845568 1.0000   
         C         C         1.0       0.17429858977475327           0.2550185936979953 0.45570794258222985          1.0000   
         C         C         1.0       0.1541339033558643  0.23113819228178523           0.4371341586507409 1.0000   
         C         C         1.0       0.15065002182681844           0.23868984870303064          0.40544525094246175          1.0000   
         C         C         1.0       0.16731779793080584           0.27039092074189064          0.3938467847078649 1.0000   
         C         C         1.0       0.18569253521939166           0.2948954837314479 0.41204420942048037          1.0000   
         C         C         1.0       0.23672721007847725           0.3096531851829268 0.5187854995363118 1.0000   
         C         C         1.0       0.23827595657833853           0.3097533443526173 0.5499126576224825 1.0000   
         C         C         1.0       0.20822552633847088           0.3034900679371411 0.5688091332409495 1.0000   
         C         C         1.0       0.1751803434496786  0.301799296639466   0.5520738960961605 1.0000   
         C         C         1.0       0.17341765379227636           0.30451956898733057          0.5194243166246584 1.0000   
         C         C         1.0       0.20572107813161042           0.3080952165805035 0.5024005045701896 1.0000   
         C         C         1.0       0.21055225215297213           0.31547370276985676          0.6036778335761892 1.0000   
         C         C         1.0       0.3200047134011506  0.290490460172858   0.6444355447601348 1.0000   
         C         C         1.0       0.29695147893594426           0.3144748669728788 0.6606678737826924 1.0000   
         C         C         1.0       0.26169184343305224           0.3207173381894732 0.6514810721150968 1.0000   
         C         C         1.0       0.24847495248317106           0.3040761645649223 0.6244422798909331 1.0000   
         C         C         1.0       0.27180864659146636           0.2773752102243428 0.6098591570667864 1.0000   
         C         C         1.0       0.30630275237208193           0.2691773605584898 0.6193519768765897 1.0000   
         C         C         1.0       0.1795973681647111  0.288433808175797   0.6213709601897526 1.0000   
         C         C         1.0       0.14386116767187138           0.3008932410259588 0.6302363422300746 1.0000   
         C         C         1.0       0.11738275359448903           0.27635059406769213          0.6422680426544327 1.0000   
         C         C         1.0       0.1230286500974089  0.23848107440737637           0.6415774243191457 1.0000   
         C         C         1.0       0.15906002356286092           0.2265405779273965 0.6328375651635263 1.0000   
         C         C         1.0       0.18657553221858972           0.2513442011840851 0.6255031414936323 1.0000   
         C         C         1.0       0.18977032215191464           0.3753122258812858 0.6353954253667738 1.0000   
         C         C         1.0       0.18211543345585324           0.4128801381066914 0.6385782721657018 1.0000   
         C         C         1.0       0.18891068705104241           0.4373093119582361 0.614192553439922  1.0000   
         C         C         1.0       0.20368280868190947           0.4236687366585943 0.5871727470391952 1.0000   
         C         C         1.0       0.21548277042257521           0.3863923156663035 0.5853854222559942 1.0000   
         C         C         1.0       0.2051378704659926  0.3605322330319786  0.6068128123525008 1.0000   
         H         H         1.0       0.2446801835337699  0.3870637199655476  0.44413474101809663          1.0000   
         H         H         1.0       0.2548589858524503  0.26883167552297915           0.4568210998494462 1.0000   
         H         H         1.0       0.32094524501151306           0.2723973203352497 0.44436247478138396          1.0000   
         H         H         1.0       0.3069355667954277  0.3895173647107248  0.4236175135139471 1.0000   
         H         H         1.0       0.1764780777183781  0.24645994272106653           0.4803885915524629 1.0000   
         H         H         1.0       0.14204696991392696           0.205313823752826  0.44687487132726816          1.0000   
         H         H         1.0       0.1636073400673266  0.2748810947438704  0.36913818568608925          1.0000   
         H         H         1.0       0.19830661641236422           0.31880579090928096          0.40248032354483926          1.0000   
         H         H         1.0       0.2634436426094289  0.31406473470589474           0.5093768926997795 1.0000   
         H         H         1.0       0.2639719129048658  0.31413967428563744           0.5616862528931911 1.0000   
         H         H         1.0       0.149407647951251   0.2979377261281068  0.5636963484275607 1.0000   
         H         H         1.0       0.1465618181615442  0.3018460315107147  0.509030335332848  1.0000   
         H         H         1.0       0.30571085116016244           0.3294250303134    0.6808623943410558 1.0000   
         H         H         1.0       0.2445454015108694  0.33997999658317657           0.6632972948043904 1.0000   
         H         H         1.0       0.2634317735389366  0.25854425513536833           0.5901818410561086 1.0000   
         H         H         1.0       0.32171541278584825           0.24776667671790864          0.60691230081107   1.0000   
         H         H         1.0       0.13921449139286662           0.32921445060263316          0.6221337239516825 1.0000   
         H         H         1.0       0.08758435106761797           0.28452615487671135          0.6458558681194502 1.0000   
         H         H         1.0       0.1636521525721384  0.19747342509779953           0.6302335926890712 1.0000   
         H         H         1.0       0.21179269354411123           0.2379380011223597 0.6197041048455193 1.0000   
         H         H         1.0       0.18356580818114426           0.35490386623087417          0.6520172412584145 1.0000   
         H         H         1.0       0.1705851015291328  0.42408118389045596           0.6607999207128293 1.0000   
         H         H         1.0       0.21314785765465166           0.4422429998350436 0.5686433182791386 1.0000   
         H         H         1.0       0.229737225159339   0.37660330562813576           0.5646743774298785 1.0000   
         C         C         1.0       0.8140736468596463  0.20118058071022207           0.35368862147349395          1.0000   
         C         C         1.0       0.849661969420517   0.20440569151264276           0.3640648526551482 1.0000   
         C         C         1.0       0.8711274514322315  0.17245328441444807           0.3697501720647173 1.0000   
         C         C         1.0       0.8574698287419746  0.1371892428528278  0.3639993141157514 1.0000   
         C         C         1.0       0.8203635685188788  0.13457918210377096           0.3530920245998257 1.0000   
         C         C         1.0       0.8004115027242886  0.1651689565528839  0.3474445060169138 1.0000   
         H         H         1.0       0.8606301336281376  0.2333752529750801  0.365440941141932  1.0000   
         H         H         1.0       0.8989210625833852  0.17647717964229653           0.37496817870698085          1.0000   
         H         H         1.0       0.8112209482838919  0.10641515212888397           0.34958564927708563          1.0000   
         H         H         1.0       0.7722121764139578  0.1604265979531609  0.33978316737355907          1.0000   
         C         C         1.0       0.8412965934730307  0.060410498616869424         0.39328929172221533          1.0000   
         C         C         1.0       0.8680278651145523  0.06343140742619059           0.3718859594649983 1.0000   
         C         C         1.0       0.8849105020995651  0.029864084642307945         0.3623791456470278 1.0000   
         C         C         1.0       0.8761147719348961  0.9958892404448844  0.37440818117170027          1.0000   
         C         C         1.0       0.8489882848827137  0.9944938966989197  0.39620126080336493          1.0000   
         C         C         1.0       0.830618260751776   0.026606045138218848         0.40426073070723745          1.0000   
         C         C         1.0       0.8855065875866691  0.10141800410442392           0.36189223670213727          1.0000   
         C         C         1.0       0.9172233595676744  0.10312268280415182           0.3876287264266222 1.0000   
         C         C         1.0       0.9526836247389145  0.09305676573778254           0.3801403691689746 1.0000   
         C         C         1.0       0.9791772682570729  0.09494197743973998           0.4017056767900776 1.0000   
         C         C         1.0       0.9747587073787458  0.11128987942459488           0.43033236419238063          1.0000   
         C         C         1.0       0.9392707094959796  0.1206386616079704  0.4392360088355956 1.0000   
         C         C         1.0       0.91018635127691    0.11348555945115021           0.4191740230147085 1.0000   
         C         C         1.0       0.8734512391221618  0.08810505760008547           0.3036007800451288 1.0000   
         C         C         1.0       0.8802123036778723  0.09433229100952166           0.27267884999949804          1.0000   
         C         C         1.0       0.904333782044872   0.12270030478171336           0.262513017536642  1.0000   
         C         C         1.0       0.9268054335285193  0.13724682039876154           0.2844423798754178 1.0000   
         C         C         1.0       0.9210699993263333  0.13239383618460937           0.3162191350395616 1.0000   
         C         C         1.0       0.8948788874326904  0.10576394098087652           0.32544977894167293          1.0000   
         C         C         1.0       0.9032327958010664  0.13742089478043643           0.22717195127252113          1.0000   
         C         C         1.0       0.9911361333960587  0.05989737138919637           0.2032202451508261 1.0000   
         C         C         1.0       0.9551066116397456  0.04763174077954635           0.19854946151577313          1.0000   
         C         C         1.0       0.9254666117599946  0.07225670438110021           0.20461023678750304          1.0000   
         C         C         1.0       0.932427478435097   0.10915256509724772           0.21357689516787087          1.0000   
         C         C         1.0       0.9687290104189191  0.12267026414072062           0.21311952104835957          1.0000   
         C         C         1.0       0.9977186699292838  0.09804626212512413           0.2085748583031413 1.0000   
         C         C         1.0       0.9108139904506075  0.1817548573098996  0.21860591178293295          1.0000   
         C         C         1.0       0.899956296522363   0.20821482817805317           0.2415069940280157 1.0000   
         C         C         1.0       0.901751968200129   0.2461375098223091  0.23390631091345002          1.0000   
         C         C         1.0       0.9126068980861862  0.2570951989411251  0.20395990044746543          1.0000   
         C         C         1.0       0.9214586500275423  0.23007923630383612           0.18210507963178496          1.0000   
         C         C         1.0       0.9217560508519909  0.19226375939498017           0.1893494562990238 1.0000   
         C         C         1.0       0.8596944374096225  0.1267509872815273  0.1803911565386834 1.0000   
         C         C         1.0       0.8257066074446654  0.13008376209989686           0.16489401958784988          1.0000   
         C         C         1.0       0.7964728114779824  0.1420620477979726  0.18209411596169167          1.0000   
         C         C         1.0       0.799589495955914   0.14889156125227995           0.21427164289725012          1.0000   
         C         C         1.0       0.8317339116454309  0.145091659552208   0.22970057546140668          1.0000   
         C         C         1.0       0.8631337392001207  0.1337072379560485  0.21273224580252448          1.0000   
         H         H         1.0       0.8260703046090836  0.08105095966561791           0.40446879786525297          1.0000   
         H         H         1.0       0.9057754644929944  0.029012496845874477         0.3449537076488887 1.0000   
         H         H         1.0       0.8875533083135094  0.9688847436588275  0.367793605864805  1.0000   
         H         H         1.0       0.8056277422065751  0.024501408444800532         0.41877189360855904          1.0000   
         H         H         1.0       0.9551717980698726  0.0791044112861432  0.35816867476768166          1.0000   
         H         H         1.0       0.007004203442331214          0.08532545958587057          0.39253011958923106          1.0000   
         H         H         1.0       0.9357854960464599  0.1391760935965207  0.45907626511541344          1.0000   
         H         H         1.0       0.8835425504846299  0.12376907928947066           0.4259753281093714 1.0000   
         H         H         1.0       0.8479034460054446  0.07513428518919074           0.3101747971252012 1.0000   
         H         H         1.0       0.861642780729062   0.08090904263808185           0.2557261872411913 1.0000   
         H         H         1.0       0.9451695932580682  0.15837477852405818           0.27506401939742436          1.0000   
         H         H         1.0       0.937898405970995   0.14834190992010188           0.3331243386880868 1.0000   
         H         H         1.0       0.9437783825156957  0.019899859027269207         0.1908460997182864 1.0000   
         H         H         1.0       0.8972226466075193  0.06310404277737613           0.2071155596404514 1.0000   
         H         H         1.0       0.9770191394111647  0.15135173836895974           0.21948950393551803          1.0000   
         H         H         1.0       0.027211185151389206          0.10724922420689159          0.20961351262838784          1.0000   
         H         H         1.0       0.8866162599037004  0.20199841999411655           0.2630077610619964 1.0000   
         H         H         1.0       0.892092032549598   0.2654770089812108  0.25125670953893564          1.0000   
         H         H         1.0       0.924987036871428   0.2387512225593857  0.15886975635194697          1.0000   
         H         H         1.0       0.9314813829351635  0.17394575067120055           0.17111390984819805          1.0000   
         H         H         1.0       0.8823515215999441  0.1205393447403276  0.16517799656138712          1.0000   
         H         H         1.0       0.8269157498969039  0.125915792502523   0.14018871840722671          1.0000   
         H         H         1.0       0.7757631708797236  0.16117239192342223           0.22850437694482265          1.0000   
         H         H         1.0       0.833407192771128   0.1566923881301694  0.25271642614730416          1.0000   
         C         C         1.0       0.8527799130590694  0.026764889921011337         0.951340300217481  1.0000   
         C         C         1.0       0.8575605447870008  0.01771108110449604           0.9815877420745585 1.0000   
         C         C         1.0       0.8819939395766785  0.03716679358992536           0.9994200069534588 1.0000   
         C         C         1.0       0.9025689191753451  0.06765596162118136           0.9870416111463465 1.0000   
         C         C         1.0       0.8941202631124081  0.07647675758884385           0.954995851855442  1.0000   
         C         C         1.0       0.8692112745724544  0.056960150646901735         0.9383082692042657 1.0000   
         H         H         1.0       0.8470685426755206  0.9927797590809719  0.9933419221130072 1.0000   
         H         H         1.0       0.8859637731480726  0.029981801954164666         0.023201703675541863         1.0000   
         H         H         1.0       0.9098393933920365  0.09727051594839041           0.9423611716049162 1.0000   
         H         H         1.0       0.865828394359989   0.06509215886331976           0.9135118266380561 1.0000   
         C         C         1.0       0.9809896820826846  0.08401243789415336           0.9681637469140786 1.0000   
         C         C         1.0       0.9640674217655719  0.10711114700789857           0.9894792318151596 1.0000   
         C         C         1.0       0.9839971024427699  0.13814627318491748           0.9989385988372693 1.0000   
         C         C         1.0       0.018997200359315958          0.14602772373707087          0.9889253494852799 1.0000   
         C         C         1.0       0.035645805924945595          0.12180469913900871          0.9677832364376118 1.0000   
         C         C         1.0       0.01757636602436108           0.08967093058514619          0.9579607683596262 1.0000   
         C         C         1.0       0.9273406576191021  0.0931811519140302  0.0068372897238371255        1.0000   
         C         C         1.0       0.9470846025712994  0.07294915119045076           0.037830359329582564         1.0000   
         C         C         1.0       0.9487418734132309  0.08976560249732302           0.06699137081359119          1.0000   
         C         C         1.0       0.963043987546068   0.07061148509938509           0.09174912271270275          1.0000   
         C         C         1.0       0.9788124935104076  0.03580564746275705           0.08845627999521   1.0000   
         C         C         1.0       0.982083230089952   0.0221975835785444  0.058474321841767374         1.0000   
         C         C         1.0       0.9644302605899621  0.03920320690307588           0.034319146240707754         1.0000   
         C         C         1.0       0.8997028873791771  0.1605892523286697  0.995258270528659  1.0000   
         C         C         1.0       0.8786591080390657  0.19082618688368272           0.006559286253938756         1.0000   
         C         C         1.0       0.8614940112826723  0.19214892767321295           0.03541141258071723          1.0000   
         C         C         1.0       0.8582586332622133  0.15841982715926875           0.049766513925488365         1.0000   
         C         C         1.0       0.8754799152189978  0.12574053868264579           0.03873657445464729          1.0000   
         C         C         1.0       0.9003198794706675  0.12692315228111373           0.013578389814760117         1.0000   
         C         C         1.0       0.85154762502664    0.23122982109738985           0.052347751638320617         1.0000   
         C         C         1.0       0.9671674111820606  0.24643985712524444           0.0788535202040257 1.0000   
         C         C         1.0       0.9544269184561766  0.2649347932383235  0.053524224867319115         1.0000   
         C         C         1.0       0.9181735308034823  0.2615269911353861  0.045731839429417276         1.0000   
         C         C         1.0       0.8928349096740674  0.24075832784262938           0.06395931551429368          1.0000   
         C         C         1.0       0.9082052040523803  0.2236025218181197  0.09008104735115596          1.0000   
         C         C         1.0       0.9435719112957924  0.22680870277688742           0.09835656193077735          1.0000   
         C         C         1.0       0.819981699060136   0.2259522719544987  0.07993374306780576          1.0000   
         C         C         1.0       0.7888578439151316  0.20517180922342204           0.07386312468127398          1.0000   
         C         C         1.0       0.7648105079344842  0.19377703891439887           0.09695209468236632          1.0000   
         C         C         1.0       0.7720696372138075  0.20179988983529587           0.1276084529288617 1.0000   
         C         C         1.0       0.7995725457410372  0.22536996111826327           0.13437637925112322          1.0000   
         C         C         1.0       0.8233026471356326  0.23989731149273252           0.11062050301509907          1.0000   
         C         C         1.0       0.8352479825029827  0.2992142875486346  0.03923739521969516          1.0000   
         C         C         1.0       0.8126968320236868  0.32522843089097603           0.027125913133838386         1.0000   
         C         C         1.0       0.7891312419415675  0.315461817432801   0.0034824996149960263        1.0000   
         C         C         1.0       0.7840449647270178  0.27846184967552906           0.9973763034382584 1.0000   
         C         C         1.0       0.8059319242959111  0.2522945814294852  0.010225868535734373         1.0000   
         C         C         1.0       0.8332320042947357  0.2621542234622464  0.030220521823493884         1.0000   
         H         H         1.0       0.9690619087034934  0.058222874657434025         0.9597348818961758 1.0000   
         H         H         1.0       0.9706174961279748  0.1571712468631907  0.015633439500978064         1.0000   
         H         H         1.0       0.032892686944262506          0.1710655247948996 0.9950753784615929 1.0000   
         H         H         1.0       0.02871778050226581           0.06694619679830159          0.9438785044334053 1.0000   
         H         H         1.0       0.9386271567374662  0.1173348732093572  0.0698808482593738 1.0000   
         H         H         1.0       0.9580475734903684  0.08296186219693524           0.11496258557224825          1.0000   
         H         H         1.0       0.0011089666763857142         0.9984860635665642 0.05376865643294182          1.0000   
         H         H         1.0       0.9618757269526929  0.024723319755672435         0.011839515313152527         1.0000   
         H         H         1.0       0.9184300471920014  0.16495416134374302           0.9767197096880768 1.0000   
         H         H         1.0       0.8846134994278875  0.2175759895158996  0.9953597472726384 1.0000   
         H         H         1.0       0.8492536096130533  0.1557828413533322  0.07293535891567537          1.0000   
         H         H         1.0       0.8723117127142515  0.10092576180214839           0.053502135219634095         1.0000   
         H         H         1.0       0.9746338069053747  0.280284277799581   0.039420737193892386         1.0000   
         H         H         1.0       0.9103315823345567  0.2711641831711713  0.022665552882457307         1.0000   
         H         H         1.0       0.891303950578819   0.20382500673029819           0.10444502989941706          1.0000   
         H         H         1.0       0.9554359295392543  0.210857164951346   0.11823931828182599          1.0000   
         H         H         1.0       0.787234702538062   0.19298429668262204           0.04999498947054759          1.0000   
         H         H         1.0       0.7458765953006843  0.17159668626063837           0.09131565154191068          1.0000   
         H         H         1.0       0.8055874244798925  0.2301155638791343  0.1588695667435411 1.0000   
         H         H         1.0       0.8471962602630652  0.25761197594728324           0.11450208853336652          1.0000   
         H         H         1.0       0.8525747446653553  0.3100894123898927  0.05767164272769709          1.0000   
         H         H         1.0       0.8108505706526329  0.35558291364384714           0.036545544825288045         1.0000   
         H         H         1.0       0.7642585415772893  0.26941335859535015           0.9808944171042968 1.0000   
         H         H         1.0       0.8055195773681861  0.22284333141526108           0.004787981423621357         1.0000   
         C         C         1.0       0.09877498784068095           0.8625303475994022 0.3271629017373692 1.0000   
         C         C         1.0       0.09386055978922103           0.9007935103968224 0.3290924006988369 1.0000   
         C         C         1.0       0.12478968612173946           0.9215230041830813 0.3381862863776748 1.0000   
         C         C         1.0       0.15981342157442024           0.9055877193092874 0.3429422087041924 1.0000   
         C         C         1.0       0.16264850460962954           0.8675307317720935 0.34295203950470116          1.0000   
         C         C         1.0       0.13206336211019254           0.8470132996477765 0.3352991861793371 1.0000   
         H         H         1.0       0.06711650254349077           0.9148619793471816 0.3290170139083341 1.0000   
         H         H         1.0       0.12290270775066747           0.9496741360946577 0.34159918023233843          1.0000   
         H         H         1.0       0.18899117115141648           0.8534307800241101 0.3484111903821078 1.0000   
         H         H         1.0       0.13335732251835886           0.8173241226042928 0.33393760090153696          1.0000   
         C         C         1.0       0.2222844220245327  0.8963606382381827  0.3911090367016333 1.0000   
         C         C         1.0       0.2286165179850637  0.9150619850479331  0.3641110493204502 1.0000   
         C         C         1.0       0.2653079996063609  0.9269113588564238  0.35872573394888685          1.0000   
         C         C         1.0       0.2936477660523442  0.9127118902763639  0.37594944071740866          1.0000   
         C         C         1.0       0.2866519711054402  0.8900027926197118  0.40072627355821694          1.0000   
         C         C         1.0       0.24968905794117602           0.8834235437780483 0.4085191488936069 1.0000   
         C         C         1.0       0.19649034279383687           0.9330152324247222 0.34589647957218683          1.0000   
         C         C         1.0       0.1905362989735944  0.9719905438625954  0.3644296409402275 1.0000   
         C         C         1.0       0.20507995835970796           0.004439659281834096         0.3553844963442697 1.0000   
         C         C         1.0       0.18802757483084415           0.03682830142039206          0.3637231798368174 1.0000   
         C         C         1.0       0.1611470003973342  0.03793334532459558           0.3872212161288347 1.0000   
         C         C         1.0       0.15235060883713675           0.004440717065807398         0.4009821858731582 1.0000   
         C         C         1.0       0.16736734450014754           0.9726206200640949 0.389584867239574  1.0000   
         C         C         1.0       0.21958024408157673           0.9118225474496884 0.2911652041961391 1.0000   
         C         C         1.0       0.21019384401984664           0.9055284183045182 0.259712786536282  1.0000   
         C         C         1.0       0.19021466150220218           0.9310179418863334 0.2442936527774695 1.0000   
         C         C         1.0       0.18199276895744584           0.9646007184694652 0.2598952174211813 1.0000   
         C         C         1.0       0.18390397049883098           0.9663325288802086 0.29143601140091613          1.0000   
         C         C         1.0       0.20309694205143752           0.9393090935548063 0.30802594879039646          1.0000   
         C         C         1.0       0.17291106204621695           0.9248767555218828 0.21076289145805346          1.0000   
         C         C         1.0       0.270969196774294   0.9700282847079832  0.16238777333489413          1.0000   
         C         C         1.0       0.27026705887855185           0.9348414258009049 0.17446163898750833          1.0000   
         C         C         1.0       0.23938143159911415           0.9207813054857558 0.18832984505644626          1.0000   
         C         C         1.0       0.20779317955569668           0.9432487551454327 0.19254367156660782          1.0000   
         C         C         1.0       0.20956777167777954           0.9806526333573813 0.18269464772800514          1.0000   
         C         C         1.0       0.24061836564433828           0.9936269683698119 0.16799985501312592          1.0000   
         C         C         1.0       0.1308629192597801  0.9424597231098434  0.205832050573265  1.0000   
         C         C         1.0       0.10506822915345815           0.9443867051562912 0.22983944290506564          1.0000   
         C         C         1.0       0.07042310653016615           0.9611303875569908 0.22744735246055126          1.0000   
         C         C         1.0       0.061603011415336084          0.9772062719133515 0.19901991408890232          1.0000   
         C         C         1.0       0.08744677475206042           0.9759561208414317 0.1740889431339991 1.0000   
         C         C         1.0       0.1202475888468082  0.9570027684703112  0.1780173915244412 1.0000   
         C         C         1.0       0.1722188330795585  0.8728626119402091  0.17134245632708547          1.0000   
         C         C         1.0       0.16376470270746935           0.8347420167126023 0.16466573121802996          1.0000   
         C         C         1.0       0.1511569283998473  0.8098210769013265  0.1867147625701049 1.0000   
         C         C         1.0       0.14134221304554462           0.8230338872999919 0.2155736607472022 1.0000   
         C         C         1.0       0.1491940765048938  0.8605895777453793  0.22229195449249592          1.0000   
         C         C         1.0       0.16441529705710112           0.8849583137085126 0.2007185832364204 1.0000   
         H         H         1.0       0.19485385259096902           0.8919198416293419 0.39986765453208944          1.0000   
         H         H         1.0       0.2700005532583674  0.9426152223133768  0.3366435239855508 1.0000   
         H         H         1.0       0.32306953315667514           0.9179897855162026 0.36846754644016394          1.0000   
         H         H         1.0       0.24526350694789592           0.8658464509933523 0.4284085600339149 1.0000   
         H         H         1.0       0.22796086121253106           0.005770771143142062         0.33927961991959416          1.0000   
         H         H         1.0       0.19775497914754292           0.06288578568625236          0.35267541437211386          1.0000   
         H         H         1.0       0.13459233126486403           0.0017271735971495783        0.4212155927701482 1.0000   
         H         H         1.0       0.15825156406213692           0.9471310285634444 0.40225749633156044          1.0000   
         H         H         1.0       0.23697497794140632           0.8916069177484094 0.3032935050182342 1.0000   
         H         H         1.0       0.21806554923418697           0.8802993251506143 0.24764908756388174          1.0000   
         H         H         1.0       0.16455114649158586           0.9845568918000357 0.2497689451999079 1.0000   
         H         H         1.0       0.17002862859246168           0.9899583176348852 0.30204343383071935          1.0000   
         H         H         1.0       0.29200295186888375           0.9174450051981725 0.16624559721072424          1.0000   
         H         H         1.0       0.2406855686313607  0.8914258280764418  0.19639596194054898          1.0000   
         H         H         1.0       0.18610480307967786           0.9984463870769943 0.18599743209651973          1.0000   
         H         H         1.0       0.24171018415230955           0.022471370792044754         0.15906696678697257          1.0000   
         H         H         1.0       0.11562226855433444           0.9346710346550663 0.25264797335457495          1.0000   
         H         H         1.0       0.05273814234289298           0.9602254127688223 0.24741232929819704          1.0000   
         H         H         1.0       0.0808407807406093  0.9886613904853871  0.15201671029173594          1.0000   
         H         H         1.0       0.13734434922375888           0.9522339240335556 0.15725913735633276          1.0000   
         H         H         1.0       0.1815234328968448  0.8915108633729076  0.15212573846762456          1.0000   
         H         H         1.0       0.16899813623816184           0.8238281923282277 0.14212226011937595          1.0000   
         H         H         1.0       0.1279363492915535  0.8086578553608254  0.23437431531176017          1.0000   
         H         H         1.0       0.1412768040177621  0.8704898555876379  0.24753063091421254          1.0000   
         C         C         1.0       0.2531633119059597  0.8840027119933489  0.9643048819264287 1.0000   
         C         C         1.0       0.24530072454703733           0.8949536472461881 0.9953352303124753 1.0000   
         C         C         1.0       0.2144959802542695  0.9140754477729338  0.0034152580332178495        1.0000   
         C         C         1.0       0.18620898739560554           0.9181435432888453 0.9820221810466523 1.0000   
         C         C         1.0       0.19157681033599516           0.9022026791699927 0.9518338234934547 1.0000   
         C         C         1.0       0.22449719451434533           0.8873349421039796 0.9429360934041311 1.0000   
         H         H         1.0       0.2670032804674948  0.8902085355680475  0.010173697898325562         1.0000   
         H         H         1.0       0.21540387828687688           0.9229370836522894 0.02784207404054717          1.0000   
         H         H         1.0       0.17167560114078909           0.9045491788000214 0.934737876272875  1.0000   
         H         H         1.0       0.22682012423892464           0.878467745526591  0.917536276698613  1.0000   
         C         C         1.0       0.15416440625355277           0.9785164643974479 0.9344448120696682 1.0000   
         C         C         1.0       0.13428405418020342           0.9719027105618492 0.962331864745148  1.0000   
         C         C         1.0       0.0984563809120107  0.9842645851399665  0.9643209432912484 1.0000   
         C         C         1.0       0.08374123245238585           0.00524801700903188          0.9409800814365891 1.0000   
         C         C         1.0       0.10422924403530498           0.012605086379978037         0.913199562402136  1.0000   
         C         C         1.0       0.13976788751494063           0.0013143268156798893        0.9124136979316749 1.0000   
         C         C         1.0       0.15359538882216792           0.9498685605566027 0.9896148964704834 1.0000   
         C         C         1.0       0.17193567235294185           0.9858176229895959 0.008307664930293113         1.0000   
         C         C         1.0       0.15299142911294503           0.0031701036059652576        0.03255428392073978          1.0000   
         C         C         1.0       0.1686227175837858  0.03177226110212383           0.05134755452860951          1.0000   
         C         C         1.0       0.20246941998445286           0.047271392764763887         0.041890677340882254         1.0000   
         C         C         1.0       0.22069751844905466           0.03247265577876335          0.015068937846875796         1.0000   
         C         C         1.0       0.20399991825195235           0.003896301316132389         0.9976516977548169 1.0000   
         C         C         1.0       0.09694905568377776           0.9042323407475977 0.9967234943355117 1.0000   
         C         C         1.0       0.07439455477765411           0.8803228477422118 0.012629054914309323         1.0000   
         C         C         1.0       0.083664948371029   0.8679933199944584  0.04326802202570823          1.0000   
         C         C         1.0       0.11365123504118797           0.8859370649354942 0.05668724636166256          1.0000   
         C         C         1.0       0.13401081090366448           0.9116068484404896 0.04128529673056747          1.0000   
         C         C         1.0       0.12666685991310148           0.9220172848856437 0.010005426719356336         1.0000   
         C         C         1.0       0.054803579519427936          0.8453807095352396 0.06297424528693063          1.0000   
         C         C         1.0       0.9904794255377057  0.9397112069722443  0.10338697388859819          1.0000   
         C         C         1.0       0.9819229572680485  0.9211681189976537  0.0760063245477316 1.0000   
         C         C         1.0       0.002978468078460361          0.8933328657593659 0.06263916397324776          1.0000   
         C         C         1.0       0.03353744797526792           0.8801502505976924 0.07764396286108965          1.0000   
         C         C         1.0       0.04340311111545003           0.9008400651088733 0.10401142445917277          1.0000   
         C         C         1.0       0.022014025108160418          0.9286237716595349 0.11826733307970527          1.0000   
         C         C         1.0       0.07038486783650244           0.8191212521525605 0.08987138619342261          1.0000   
         C         C         1.0       0.1023017276566418  0.7982236787587158  0.08666355970933814          1.0000   
         C         C         1.0       0.11704322571640247           0.7771649684585689 0.11109662132619413          1.0000   
         C         C         1.0       0.09873271745301149           0.7773608803474031 0.13885835024127277          1.0000   
         C         C         1.0       0.06749904461692813           0.7992930661095967 0.14345517983346967          1.0000   
         C         C         1.0       0.05204822180413271           0.8163371990303595 0.11802075319957872          1.0000   
         C         C         1.0       0.9951370106314215  0.8058987962632973  0.05405955071816626          1.0000   
         C         C         1.0       0.9735728783632939  0.7812832940229627  0.038637320952476406         1.0000   
         C         C         1.0       0.9875572373294944  0.7669250941984578  0.011464570037438504         1.0000   
         C         C         1.0       0.022756372975837547          0.7724184764780383 0.002165781962373936         1.0000   
         C         C         1.0       0.04493490739559536           0.7962297639434878 0.019191553876787282         1.0000   
         C         C         1.0       0.030257869951520577          0.8160564914849601 0.044127183691558436         1.0000   
         H         H         1.0       0.18360201170770502           0.9703955455026333 0.9322001779417093 1.0000   
         H         H         1.0       0.08152998617177887           0.9776561192812592 0.9858879199211728 1.0000   
         H         H         1.0       0.05611526982286352           0.017556410614810503         0.9438547965223927 1.0000   
         H         H         1.0       0.15796304071188347           0.009914183906852614         0.8924118399269959 1.0000   
         H         H         1.0       0.1248137756122611  0.9950664155462392  0.040550206931553534         1.0000   
         H         H         1.0       0.1538795931776917  0.03902039066802865           0.07315227037722116          1.0000   
         H         H         1.0       0.24905063243297518           0.043400503405743196         0.008114509924823876         1.0000   
         H         H         1.0       0.22018696617582165           0.9931708599875001 0.977040653083782  1.0000   
         H         H         1.0       0.09002937519909993           0.9125139831038442 0.9741836482073662 1.0000   
         H         H         1.0       0.04992652891093141           0.8726705541445138 0.0007681604629066197        1.0000   
         H         H         1.0       0.12506506927427685           0.8779179027080526 0.07829004664937167          1.0000   
         H         H         1.0       0.15626538441485724           0.9247677573717573 0.05420442991665264          1.0000   
         H         H         1.0       0.9559731613415318  0.929332775178273   0.06423458788571557          1.0000   
         H         H         1.0       0.9947131622314016  0.8837959209159332  0.03958970751995894          1.0000   
         H         H         1.0       0.07021388814336071           0.8934302426103277 0.11537218970361751          1.0000   
         H         H         1.0       0.030092613142984392          0.9411544333524786 0.14031320508494693          1.0000   
         H         H         1.0       0.11571531493046305           0.7993007657375069 0.06456762168398167          1.0000   
         H         H         1.0       0.14334171617451053           0.759511904833306  0.11066476410761261          1.0000   
         H         H         1.0       0.05065435376472194           0.7966728745037068 0.1645389113095063 1.0000   
         H         H         1.0       0.02492262464692363           0.8303541376889425 0.12109797206914918          1.0000   
         H         H         1.0       0.9830411965765216  0.8182433452738899  0.07506707187486694          1.0000   
         H         H         1.0       0.9473297684725448  0.7718293910344324  0.049305238128601214         1.0000   
         H         H         1.0       0.03502737160637737           0.7606260996152355 0.982761308952005  1.0000   
         H         H         1.0       0.07331374349764075           0.7998378993128231 0.011445687901064705         1.0000   
         C         C         1.0       0.42084156242616944           0.09326650864182962          0.3412120185688951 1.0000   
         C         C         1.0       0.3842223180636536  0.08767146591078046           0.35130861561121685          1.0000   
         C         C         1.0       0.36275996512771624           0.11829127078621604          0.3559145148821585 1.0000   
         C         C         1.0       0.3765646050174306  0.15529969186301762           0.3546166247328785 1.0000   
         C         C         1.0       0.4138536632975418  0.15897503894680765           0.3488939051636999 1.0000   
         C         C         1.0       0.4352473438190276  0.1291801064792586  0.34178186647966174          1.0000   
         H         H         1.0       0.3740102320300381  0.06011250550235592           0.35298684350175924          1.0000   
         H         H         1.0       0.33281499211482296           0.11541872573379774          0.3588155399744264 1.0000   
         H         H         1.0       0.4244236852882421  0.18732691382351457           0.3464673925128565 1.0000   
         H         H         1.0       0.4624024331274138  0.13328779225173037           0.3339150962220077 1.0000   
         C         C         1.0       0.3881095904214513  0.2366450518120821  0.3847255527893019 1.0000   
         C         C         1.0       0.3616837080081049  0.2316367073672133  0.3634719577168486 1.0000   
         C         C         1.0       0.3436073343785129  0.2625417240632317  0.35055020024165423          1.0000   
         C         C         1.0       0.3497061653202015  0.2981343193535945  0.3622786423597703 1.0000   
         C         C         1.0       0.3751015270244513  0.3022260317187978  0.38532216617670784          1.0000   
         C         C         1.0       0.3951032499889307  0.2720882198378032  0.3959343964283788 1.0000   
         C         C         1.0       0.3494711710564512  0.19035215575291867           0.35228819218167146          1.0000   
         C         C         1.0       0.3138214427609871  0.18689150812443647           0.37433338591170173          1.0000   
         C         C         1.0       0.27715374095892453           0.19808111047735102          0.3671157778682108 1.0000   
         C         C         1.0       0.24853123500084368           0.1882690589443977 0.3860020696560679 1.0000   
         C         C         1.0       0.254194503691672   0.17156696829345502           0.41374779188139454          1.0000   
         C         C         1.0       0.2894790969413959  0.16414447395040788           0.42371829601295424          1.0000   
         C         C         1.0       0.3178909770406734  0.1713092826654586  0.4038612085908166 1.0000   
         C         C         1.0       0.3694422337280789  0.20465757262702924           0.29407649595531765          1.0000   
         C         C         1.0       0.3646136698026356  0.20019562097453722           0.26283976902122985          1.0000   
         C         C         1.0       0.3404674371131424  0.173457320623415   0.2509824244926969 1.0000   
         C         C         1.0       0.3207470633555298  0.15254647341212127           0.27212216447301296          1.0000   
         C         C         1.0       0.32038953764788647           0.16124183960598992          0.3026448637716076 1.0000   
         C         C         1.0       0.3446762186437945  0.1874417572017094  0.31529466027268765          1.0000   
         C         C         1.0       0.338277815994774   0.1624795450972338  0.2151246114857037 1.0000   
         C         C         1.0       0.24462391458604935           0.23642720036595757          0.2045731549898586 1.0000   
         C         C         1.0       0.2815714309631387  0.24995888245912384           0.2007164852093098 1.0000   
         C         C         1.0       0.30998999760489726           0.22405718486741974          0.20075551252209514          1.0000   
         C         C         1.0       0.3032121035549974  0.18674030110231946           0.20591934417005028          1.0000   
         C         C         1.0       0.2671022884270815  0.1743166226959198  0.20887455195631485          1.0000   
         C         C         1.0       0.23812435326523898           0.19913023393827367          0.20845986202238265          1.0000   
         C         C         1.0       0.33239435042369037           0.11883490973872868          0.20730660454784028          1.0000   
         C         C         1.0       0.34617791345476817           0.09009369025014458          0.22692522735300522          1.0000   
         C         C         1.0       0.3432344127845058  0.05207534226820276           0.21723262838766674          1.0000   
         C         C         1.0       0.32934932038893555           0.04314553136832866          0.18950591819997384          1.0000   
         C         C         1.0       0.3175550450058046  0.07022643202440193           0.17021100013865442          1.0000   
         C         C         1.0       0.3165355846487617  0.10731993571711194           0.17974812568263093          1.0000   
         C         C         1.0       0.38209142521397016           0.18180662842576562          0.16799158694201946          1.0000   
         C         C         1.0       0.4145120118999837  0.18133545219118052           0.15168211953768768          1.0000   
         C         C         1.0       0.4443946166455556  0.16444038680936174           0.1639268418817321 1.0000   
         C         C         1.0       0.4415713713095798  0.14929606747350868           0.19384378278693823          1.0000   
         C         C         1.0       0.4095785934603537  0.1515366173455727  0.21047017660882528          1.0000   
         C         C         1.0       0.37779468916457226           0.166862349401092  0.19736495196144488          1.0000   
         H         H         1.0       0.40220855865816246           0.21055777080837007          0.3919643965435992 1.0000   
         H         H         1.0       0.32365617561608234           0.2604668269963431 0.3317103283066187 1.0000   
         H         H         1.0       0.33036073286619444           0.3206459057280257 0.35463502143969083          1.0000   
         H         H         1.0       0.41470138379621924           0.27508769142561373          0.4155955775766886 1.0000   
         H         H         1.0       0.2739762329198005  0.21311472580632082           0.34600141774137233          1.0000   
         H         H         1.0       0.22001327627380407           0.19446874406508338          0.3804131797534389 1.0000   
         H         H         1.0       0.29217268309126765           0.14957118354450083          0.4459509710925528 1.0000   
         H         H         1.0       0.3450245861897935  0.16675892824628247           0.41554708233795257          1.0000   
         H         H         1.0       0.3926026973630014  0.22342873425453752           0.3007496111621432 1.0000   
         H         H         1.0       0.38220645401454983           0.21773674050453418          0.24888567603574194          1.0000   
         H         H         1.0       0.30189192334595477           0.13100548688901958          0.26543682588550865          1.0000   
         H         H         1.0       0.3036123417675     0.145072041305917   0.318129435265054  1.0000   
         H         H         1.0       0.2893683237155464  0.2794848207334093  0.19786563464938703          1.0000   
         H         H         1.0       0.33763311790310024           0.23505941155171992          0.1969054526422367 1.0000   
         H         H         1.0       0.2626224819918786  0.14596727564454695           0.2132544496449159 1.0000   
         H         H         1.0       0.20940285551467466           0.19105205310822262          0.21444330127501168          1.0000   
         H         H         1.0       0.36089359007041044           0.09560390828166443          0.24829086131084996          1.0000   
         H         H         1.0       0.3556152307025214  0.031882510622289084         0.23306228139072097          1.0000   
         H         H         1.0       0.30641300341635125           0.062187770566632716         0.14926156316267258          1.0000   
         H         H         1.0       0.30947826490682534           0.13017634734265496          0.16509005944865016          1.0000   
         H         H         1.0       0.3563847633675841  0.1923466254772479  0.15599794010585766          1.0000   
         H         H         1.0       0.4143814665981313  0.18967938120361347           0.1269796967321191 1.0000   
         H         H         1.0       0.46529427145105984           0.13839761633660053          0.2070244861685279 1.0000   
         H         H         1.0       0.4104675473112515  0.14369920437345352           0.235459487659774  1.0000   
         C         C         1.0       0.3955465483962652  0.2721188752821193  0.9574349258179324 1.0000   
         C         C         1.0       0.3937409431344919  0.2750609727616098  0.9900948749125495 1.0000   
         C         C         1.0       0.3712940264024775  0.25181854666327236           0.005256217967425814         1.0000   
         C         C         1.0       0.3509357920666678  0.22480267461494974           0.9906055879587705 1.0000   
         C         C         1.0       0.3542548799166635  0.22227030518143678           0.9584481434856096 1.0000   
         C         C         1.0       0.37615996875012364           0.2466483703094984 0.9413158901583137 1.0000   
         H         H         1.0       0.4114654467126804  0.29448562583289706           0.0002455760975219601        1.0000   
         H         H         1.0       0.3704110268674287  0.25485661647598284           0.029965377821196792         1.0000   
         H         H         1.0       0.34319284707318426           0.19674743630294816          0.9475164879342274 1.0000   
         H         H         1.0       0.37959124207736245           0.24030945818820304          0.9170983253821006 1.0000   
         C         C         1.0       0.2710081238523233  0.19981087828614924           0.9679587110593201 1.0000   
         C         C         1.0       0.2900683982494534  0.1796316712329701  0.9904867046599672 1.0000   
         C         C         1.0       0.2725414721621366  0.14686807020062978           0.002466864261751356         1.0000   
         C         C         1.0       0.237668065413366   0.13701764781595052           0.9917380810182954 1.0000   
         C         C         1.0       0.2195189033094814  0.15925149195741936           0.9707666250717147 1.0000   
         C         C         1.0       0.23607195011089924           0.19155937953294852          0.9596718562682158 1.0000   
         C         C         1.0       0.3251568088121828  0.1948678081772877  0.007817250140585097         1.0000   
         C         C         1.0       0.30522339662504905           0.21264854334346045          0.037690260979030166         1.0000   
         C         C         1.0       0.29624643886166346           0.19270197471497483          0.06540055115050714          1.0000   
         C         C         1.0       0.27862273958251044           0.21043647884532715          0.09014740769432406          1.0000   
         C         C         1.0       0.27288291215290433           0.24936776445577155          0.08993015499052848          1.0000   
         C         C         1.0       0.27569170404023563           0.26804896120763355          0.06135987720036007          1.0000   
         C         C         1.0       0.29093588373716844           0.24905534873767682          0.03650790663508707          1.0000   
         C         C         1.0       0.35761025899621934           0.13221335268178022          0.9975457552897626 1.0000   
         C         C         1.0       0.37962814750587887           0.1021231680150756 0.006438746179070698         1.0000   
         C         C         1.0       0.39750666039858584           0.10303654042661226          0.03539293261713117          1.0000   
         C         C         1.0       0.397888137542074   0.13627877859953266           0.05123026553317889          1.0000   
         C         C         1.0       0.3768617081284307  0.16635267085157454           0.04276966250048653          1.0000   
         C         C         1.0       0.35348694646834544           0.16196103374712456          0.016640809444536053         1.0000   
         C         C         1.0       0.4079386510928343  0.06533943862444058           0.05174641234397481          1.0000   
         C         C         1.0       0.2911681319648709  0.04935876421603491           0.07303566839779752          1.0000   
         C         C         1.0       0.3075474343650265  0.02578427054427701           0.050473365727826014         1.0000   
         C         C         1.0       0.3451010823811511  0.028587848783953262         0.0442256776349359 1.0000   
         C         C         1.0       0.36663461692636823           0.0534456299816608 0.061575323395070214         1.0000   
         C         C         1.0       0.34938332595081645           0.07440642539523123          0.08522776827364553          1.0000   
         C         C         1.0       0.3119929995989053  0.07513901217474617           0.08851175142133849          1.0000   
         C         C         1.0       0.4370055435390527  0.07175695565860285           0.07836375428308351          1.0000   
         C         C         1.0       0.4697737903569733  0.09054118821407985           0.06884759343978897          1.0000   
         C         C         1.0       0.49362890384925534           0.10565680059773802          0.09042330607725302          1.0000   
         C         C         1.0       0.4863624303565194  0.10045101542068123           0.12206064173370956          1.0000   
         C         C         1.0       0.4579918493283296  0.07736331562959187           0.13240527779880162          1.0000   
         C         C         1.0       0.4342465165355116  0.062312181246553244         0.1099452661989122 1.0000   
         C         C         1.0       0.4289812353645713  0.9981561486632797  0.04003563215280148          1.0000   
         C         C         1.0       0.44926664845259157           0.9712862097364036 0.02412744788232346          1.0000   
         C         C         1.0       0.47258070174823996           0.9820134506899976 0.998945286044385  1.0000   
         C         C         1.0       0.47405633998197105           0.0185854753854795 0.9905629371656574 1.0000   
         C         C         1.0       0.4517295265124763  0.04574444068692807           0.0059124102028316194        1.0000   
         C         C         1.0       0.4286483495784763  0.034904355837474865         0.029825171477592782         1.0000   
         H         H         1.0       0.2827480206977425  0.22428630228280313           0.9567185618351324 1.0000   
         H         H         1.0       0.28509063974779386           0.12887547652227208          0.017850199017769297         1.0000   
         H         H         1.0       0.22395574140673186           0.1133763317819167 0.002177562667349253         1.0000   
         H         H         1.0       0.22380176805491195           0.21143454296666034          0.9444446351588843 1.0000   
         H         H         1.0       0.30515634337665204           0.164012588055758  0.0670042617342872 1.0000   
         H         H         1.0       0.27265099217851385           0.196160973727956  0.11178962636849588          1.0000   
         H         H         1.0       0.266538363888937   0.29697115337088426           0.057634841174851736         1.0000   
         H         H         1.0       0.2928667024669045  0.2657994332372368  0.015695918224776895         1.0000   
         H         H         1.0       0.34173110551069313           0.1313310373145391 0.9748384391807695 1.0000   
         H         H         1.0       0.37959905013146655           0.07791324124982801          0.9901423682734404 1.0000   
         H         H         1.0       0.406477710985531   0.13544955982266269           0.07423930694123282          1.0000   
         H         H         1.0       0.3755036431345221  0.19185667905556034           0.05744970036371311          1.0000   
         H         H         1.0       0.29270620177292017           0.003319689301093831         0.03908831526004697          1.0000   
         H         H         1.0       0.35748525816381    0.00715652179766102           0.028851705937949168         1.0000   
         H         H         1.0       0.36494383490781424           0.09351527467422514          0.09846835088927475          1.0000   
         H         H         1.0       0.3000812938706402  0.09494115496901201           0.10609058903395852          1.0000   
         H         H         1.0       0.47639661920385057           0.09764161981527342          0.044450032991984134         1.0000   
         H         H         1.0       0.5167026328786938  0.12101444304920451           0.08348869036345152          1.0000   
         H         H         1.0       0.45186308929961116           0.07331941995534175          0.15657789587296222          1.0000   
         H         H         1.0       0.41239626323117423           0.04667851708965309          0.11900187271714091          1.0000   
         H         H         1.0       0.41338739698418697           0.9905198385126631 0.06250729251094533          1.0000   
         H         H         1.0       0.45023145659254066           0.9425915075431593 0.03232606252063541          1.0000   
         H         H         1.0       0.4916663386805681  0.029109407142455357         0.9716418103695695 1.0000   
         H         H         1.0       0.4505933328879996  0.07429930369621274           0.997416941943322  1.0000   
         C         C         1.0       0.14727509132328645           0.4421564952315059 0.32999353499621475          1.0000   
         C         C         1.0       0.15127735894588734           0.40585437259977203          0.33545578570205065          1.0000   
         C         C         1.0       0.12052138302400607           0.3844112311724998 0.3461907683827196 1.0000   
         C         C         1.0       0.08603421660222366           0.40179344528668165          0.34823435129846114          1.0000   
         C         C         1.0       0.08455354564689865           0.44061063436160997          0.3437538646719991 1.0000   
         C         C         1.0       0.11478785481589622           0.4615506964128044 0.33688640236614564          1.0000   
         H         H         1.0       0.17495154267586538           0.3916394588835353 0.3317300942897413 1.0000   
         H         H         1.0       0.12413084284006476           0.3559040930339514 0.3515783535121671 1.0000   
         H         H         1.0       0.05820287618207409           0.45466072259139034          0.3418125718626691 1.0000   
         H         H         1.0       0.11332244823278152           0.49131312219078666          0.3332007337341937 1.0000   
         C         C         1.0       0.01962590148815857           0.41180257410035515          0.3945067079118223 1.0000   
         C         C         1.0       0.01627929664397243           0.39290841983760744          0.3664889662984089 1.0000   
         C         C         1.0       0.9804290263714166  0.38592223811558085           0.35590074603656746          1.0000   
         C         C         1.0       0.9505733612658241  0.3975278300453748  0.3722947119176706 1.0000   
         C         C         1.0       0.9545534233954127  0.41359689439880654           0.40071517191703226          1.0000   
         C         C         1.0       0.9895115116828485  0.4183276153222454  0.41290191130215514          1.0000   
         C         C         1.0       0.04861793027164695           0.3753658188014652 0.34805610800716114          1.0000   
         C         C         1.0       0.05138685660962295           0.33504405355477346          0.3643422929009444 1.0000   
         C         C         1.0       0.03131977640002881           0.3042636209300681 0.3532768190228173 1.0000   
         C         C         1.0       0.04325758744136188           0.2690032502453335 0.36154106438558337          1.0000   
         C         C         1.0       0.06963958034504492           0.2655137857894645 0.3852981717611396 1.0000   
         C         C         1.0       0.07999019055493184           0.2958838624787011 0.40177678348977264          1.0000   
         C         C         1.0       0.0714514131966888  0.3313373130205261  0.3904273966648888 1.0000   
         C         C         1.0       0.034022046310187244          0.4037355190394793 0.2930163218579285 1.0000   
         C         C         1.0       0.0413622049299014  0.4078106006473166  0.2615687972218348 1.0000   
         C         C         1.0       0.062312818054736104          0.3795920529039382 0.24566916048452955          1.0000   
         C         C         1.0       0.07352757433466128           0.349188456440579  0.2630520146723238 1.0000   
         C         C         1.0       0.06692053072016035           0.34491855871223137          0.29449410425694955          1.0000   
         C         C         1.0       0.04685565740879505           0.37217851087965714          0.3107010526747081 1.0000   
         C         C         1.0       0.06925825669355867           0.38197054319509516          0.2089151843654237 1.0000   
         C         C         1.0       0.9626625051078163  0.33292896668993327           0.1820485394989371 1.0000   
         C         C         1.0       0.9671844952782082  0.3708974771161967  0.18379266665770075          1.0000   
         C         C         1.0       0.0020641427433134574         0.3852482427971574 0.1908952947935063 1.0000   
         C         C         1.0       0.03156736665420046           0.36256849144204273          0.198304756575766  1.0000   
         C         C         1.0       0.024657001927443908          0.32439585591740366          0.19758950049874477          1.0000   
         C         C         1.0       0.9919199172200088  0.31037323193576155           0.18908933405709344          1.0000   
         C         C         1.0       0.10579653819975521           0.3602842369676452 0.19827498860083007          1.0000   
         C         C         1.0       0.1390483792709598  0.3655758669662055  0.21475638570789005          1.0000   
         C         C         1.0       0.17015728488151696           0.3442788653500561 0.20934367803505868          1.0000   
         C         C         1.0       0.16970579929564447           0.31664281955384177          0.18613046013151552          1.0000   
         C         C         1.0       0.13850490768433665           0.31248267658284384          0.16847902706232884          1.0000   
         C         C         1.0       0.10774246332724415           0.33312643085144417          0.17464686043918135          1.0000   
         C         C         1.0       0.06800175254985152           0.432513362875056  0.1620806885764624 1.0000   
         C         C         1.0       0.07192502400855405           0.46912732647519745          0.15110700559907206          1.0000   
         C         C         1.0       0.0854646294448349  0.49754935090528274           0.16970650324747   1.0000   
         C         C         1.0       0.09502175086337374           0.48851166740080043          0.19913653394652298          1.0000   
         C         C         1.0       0.09303197818178278           0.4527423437122099 0.21021548581108812          1.0000   
         C         C         1.0       0.07809000254520648           0.42381177430970185          0.19329666939431758          1.0000   
         H         H         1.0       0.04698201768179989           0.4216804238684925 0.40218924002825773          1.0000   
         H         H         1.0       0.9743058902263311  0.37266446386796537           0.334414328094001  1.0000   
         H         H         1.0       0.9238817577405886  0.3882744101822418  0.3639405111796548 1.0000   
         H         H         1.0       0.9920141767345599  0.4359800685944843  0.4337556777618433 1.0000   
         H         H         1.0       0.007423461497738648          0.3099394935028151 0.3365104413229655 1.0000   
         H         H         1.0       0.028228814225829124          0.24699411785460085          0.34914058674387893          1.0000   
         H         H         1.0       0.0976553443482735  0.29023585744813235           0.42009677027517806          1.0000   
         H         H         1.0       0.08264825828230049           0.35536348373694   0.40095154579490616          1.0000   
         H         H         1.0       0.021754377144831638          0.4286896631216795 0.30283533821175856          1.0000   
         H         H         1.0       0.029546594210398954          0.4291012342822247 0.2473274840048286 1.0000   
         H         H         1.0       0.0909568039992601  0.3283730892849341  0.25250086383151676          1.0000   
         H         H         1.0       0.08064533356666059           0.32378221876876717          0.30755158026112794          1.0000   
         H         H         1.0       0.9448946572411969  0.3900500356166403  0.1793242769336629 1.0000   
         H         H         1.0       0.0039876858151619565         0.4162326906537003 0.19612299812128392          1.0000   
         H         H         1.0       0.04274448256868513           0.3055914908911386 0.20942725518498634          1.0000   
         H         H         1.0       0.9882123759020114  0.28180715472678836           0.1887644559991856 1.0000   
         H         H         1.0       0.14115373990698896           0.3844641632508161 0.23408993950741025          1.0000   
         H         H         1.0       0.19316096606266997           0.3449106206134681 0.22371597313453961          1.0000   
         H         H         1.0       0.1362026945183374  0.29045358587818004           0.15010543220217354          1.0000   
         H         H         1.0       0.08474630587842369           0.3290698157263999 0.1585090172953128 1.0000   
         H         H         1.0       0.060248379014840044          0.41019519037412183          0.14677614735047714          1.0000   
         H         H         1.0       0.06858296457883872           0.47331568330966883          0.12621141606499758          1.0000   
         H         H         1.0       0.10579267400596337           0.5099022212334255 0.21414485983447476          1.0000   
         H         H         1.0       0.1000489686358026  0.4472972122980468  0.23369951365000374          1.0000   
         C         C         1.0       0.016909108948830687          0.41407852558083735          0.9784897979428391 1.0000   
         C         C         1.0       0.021361127434575966          0.39666445139673506          0.007166191152193191         1.0000   
         C         C         1.0       0.0525153955283868  0.3756386491983901  0.013168448237550479         1.0000   
         C         C         1.0       0.07871656157340157           0.3690747460733358 0.9903333548333352 1.0000   
         C         C         1.0       0.0780029611260935  0.3926739565429812  0.9645441128546307 1.0000   
         C         C         1.0       0.04574284503665815           0.41142097394192834          0.9563500360129571 1.0000   
         H         H         1.0       0.00037385652644106315        0.3991453371933984 0.02488534898524719          1.0000   
         H         H         1.0       0.05412514526280332           0.3643223630017745 0.03647651588801848          1.0000   
         H         H         1.0       0.10088907461559506           0.39262700734161987          0.9490288006991312 1.0000   
         H         H         1.0       0.043039376556339715          0.42902290795090053          0.935962513081675  1.0000   
         C         C         1.0       0.10916749977400199           0.31257449803619747          0.938739108643545  1.0000   
         C         C         1.0       0.12856409968526497           0.31784935707565837          0.9659872109986803 1.0000   
         C         C         1.0       0.16469150126353121           0.30389538168267727          0.9678894078590947 1.0000   
         C         C         1.0       0.17817778451198163           0.28503386778124834          0.9435675603727327 1.0000   
         C         C         1.0       0.15830101580863315           0.275971168650686  0.9181441828565615 1.0000   
         C         C         1.0       0.12340661916745246           0.2883496549301422 0.9162472152479693 1.0000   
         C         C         1.0       0.11129811896853893           0.34054254815251883          0.995756422496073  1.0000   
         C         C         1.0       0.096223976861056   0.30315842492699696           0.01306188676117026          1.0000   
         C         C         1.0       0.1084815080509769  0.28850242221511063           0.03975888554269402          1.0000   
         C         C         1.0       0.09208528621176426           0.25794638254563973          0.05509336921126584          1.0000   
         C         C         1.0       0.059384751037348416          0.24439568446995263          0.04323066476748805          1.0000   
         C         C         1.0       0.0465615258930987  0.2583650097725149  0.015154445845062536         1.0000   
         C         C         1.0       0.06556676840898357           0.28487607431689016          0.0003203993543812178        1.0000   
         C         C         1.0       0.17094715428154655           0.3834714248892781 0.9991203811147306 1.0000   
         C         C         1.0       0.19633149303715616           0.40539698985463457          0.013848531042059742         1.0000   
         C         C         1.0       0.18766934745176683           0.4191760981095569 0.044571598719887806         1.0000   
         C         C         1.0       0.1557041385387167  0.4045906130426514  0.058462361956829856         1.0000   
         C         C         1.0       0.13421907561334043           0.3793453147340556 0.04353370459160821          1.0000   
         C         C         1.0       0.14131396319288733           0.3665555629202969 0.013489839145828464         1.0000   
         C         C         1.0       0.21467196380785106           0.442439965148793  0.06659619421881025          1.0000   
         C         C         1.0       0.26807391394121755           0.34441154720583983          0.1092427025798961 1.0000   
         C         C         1.0       0.2822692715516128  0.3599443729311686  0.08283764557414752          1.0000   
         C         C         1.0       0.26574179312427293           0.3897821633099551 0.06963436649385235          1.0000   
         C         C         1.0       0.23514644330784618           0.4078309173132663 0.0830388829508899 1.0000   
         C         C         1.0       0.2221128641285283  0.3931055648928612  0.11095916312360354          1.0000   
         C         C         1.0       0.24002415605625418           0.36235213245883163          0.12453090522992083          1.0000   
         C         C         1.0       0.19189100260622785           0.4713376119524149 0.0894281484987991 1.0000   
         C         C         1.0       0.16067452276836314           0.49106798038998756          0.07800862018333099          1.0000   
         C         C         1.0       0.14077018104537323           0.5155919154566916 0.09499301583411102          1.0000   
         C         C         1.0       0.15033445096921577           0.521146010178613  0.1263165788261118 1.0000   
         C         C         1.0       0.18078440512326038           0.503908368236244  0.13896846055392942          1.0000   
         C         C         1.0       0.20038235464340298           0.4801869106874417 0.12001942799259235          1.0000   
         C         C         1.0       0.2770985806175405  0.4781165811505412  0.061362789555043706         1.0000   
         C         C         1.0       0.29962118711161745           0.500365776608622  0.045407947166066  1.0000   
         C         C         1.0       0.28852185664079805           0.5199906578342113 0.019678604881520956         1.0000   
         C         C         1.0       0.2538991112906676  0.5152944936179115  0.009268508967904099         1.0000   
         C         C         1.0       0.23057208549928843           0.4895996921802548 0.02332753993529435          1.0000   
         C         C         1.0       0.2417576661981176  0.4693660376350089  0.04877846068463909          1.0000   
         H         H         1.0       0.08198465384911159           0.321765809389874  0.93406852980379   1.0000   
         H         H         1.0       0.17815910042669947           0.3045817623385383 0.9894680235526527 1.0000   
         H         H         1.0       0.20433478671718874           0.2739730730274966 0.9454246185234396 1.0000   
         H         H         1.0       0.10647539703831164           0.2818960960975665 0.897291022148223  1.0000   
         H         H         1.0       0.13161461652369677           0.3003935817342482 0.05276465363170901          1.0000   
         H         H         1.0       0.10217401035030083           0.25105465178749276          0.07798346553404589          1.0000   
         H         H         1.0       0.023420274462993884          0.24736384734916428          0.0017333069624563269        1.0000   
         H         H         1.0       0.05336019795197555           0.29871485351964655          0.9809722425042415 1.0000   
         H         H         1.0       0.17607670320302782           0.37739612588742427          0.9730673961829498 1.0000   
         H         H         1.0       0.22115277321474075           0.4096070826284916 0.002873900957156561         1.0000   
         H         H         1.0       0.1473007840514012  0.41383456841696087           0.08263164008135959          1.0000   
         H         H         1.0       0.11055219071558016           0.3691263073814681 0.05506509623439193          1.0000   
         H         H         1.0       0.30645407443654965           0.3485100320958666 0.072647076902699  1.0000   
         H         H         1.0       0.27609192530290805           0.395498551289258  0.04610086367964472          1.0000   
         H         H         1.0       0.19788993647489161           0.4061773825551337 0.12257356454626045          1.0000   
         H         H         1.0       0.22400447875363685           0.3493359249817161 0.14358927878093675          1.0000   
         H         H         1.0       0.15166626212886875           0.4848970673395521 0.05429130984581665          1.0000   
         H         H         1.0       0.11935753701970037           0.5310670879952898 0.08280927888363854          1.0000   
         H         H         1.0       0.1921176012316261  0.5088927719170432  0.1619512570976518 1.0000   
         H         H         1.0       0.22428539182497284           0.4667247946639908 0.13171348316331288          1.0000   
         H         H         1.0       0.2887342530827993  0.461365282200692   0.08044970746031876          1.0000   
         H         H         1.0       0.3273037583027081  0.5044918273678874  0.054955929679649795         1.0000   
         H         H         1.0       0.2419386920284386  0.53133469155952    0.9907311237944456 1.0000   
         H         H         1.0       0.20264154214204194           0.48751638378901285          0.016900519551955373         1.0000   
         C         C         1.0       0.08859011518924409           0.5376889013312645 0.15612563062071158          1.0000   
         C         C         1.0       0.1288869812833667  0.5495769738176727  0.1488180018295731 1.0000   
         H         H         1.0       0.07183041787134448           0.5578632273246992 0.17069129660721602          1.0000   
         H         H         1.0       0.07456031585154199           0.5373126097980253 0.13294224946361607          1.0000   
         H         H         1.0       0.13347539620579404           0.5773877359831217 0.13918964528561426          1.0000   
         H         H         1.0       0.14310536694880738           0.5547108506964527 0.170884739200468  1.0000   
         C         C         1.0       0.25975952275721964           0.2744570597842651 0.11845772463381365          1.0000   
         C         C         1.0       0.2838642470868627  0.3095113554130295  0.12471404705576394          1.0000   
         H         H         1.0       0.229744789832617   0.2797807778487291  0.114245634483646  1.0000   
         H         H         1.0       0.2560395080428188  0.25808687466580643           0.13793481662070906          1.0000   
         H         H         1.0       0.31348638650147737           0.30495161930585046          0.11622361711435292          1.0000   
         H         H         1.0       0.28744396069332157           0.31445006273727405          0.15028031903108507          1.0000   
         C         C         1.0       0.21426948395696307           0.2644109947446333 0.20987266920212597          1.0000   
         C         C         1.0       0.19974372440100238           0.28661772771603167          0.18091844592784395          1.0000   
         H         H         1.0       0.1897179437186229  0.2503591750527588  0.22127901277452044          1.0000   
         H         H         1.0       0.22276572715064774           0.2815316639738683 0.22840236312641538          1.0000   
         H         H         1.0       0.194514900937687   0.2674746713910243  0.16113454613623562          1.0000   
         H         H         1.0       0.22434436467720703           0.3004590933350249 0.1710985688523156 1.0000   
         C         C         1.0       0.48446851802532037           0.1642051855899204 0.14942991939164302          1.0000   
         C         C         1.0       0.5052242000974448  0.12551709660531804           0.14617945537375077          1.0000   
         H         H         1.0       0.48294931839122185           0.1762897182757303 0.12417696604833858          1.0000   
         H         H         1.0       0.5041675607828668  0.18153056012661217           0.16127463393981348          1.0000   
         H         H         1.0       0.5085999066379765  0.11013484259884766           0.16753038490194205          1.0000   
         H         H         1.0       0.5339036309575654  0.13084129380180784           0.14140920083313113          1.0000   
         C         C         1.0       0.22643996759209822           0.07211969904837168          0.06447980593961766          1.0000   
         C         C         1.0       0.25117100675599785           0.045839347299747146         0.08437107367745833          1.0000   
         H         H         1.0       0.24215519905582372           0.09634857098278649          0.051875836498262995         1.0000   
         H         H         1.0       0.20644096607978601           0.08890933906558729          0.07840323353773027          1.0000   
         H         H         1.0       0.24699003706840447           0.053522057808558454         0.10891387803987462          1.0000   
         H         H         1.0       0.23963625963943616           0.01711843841460081          0.08448742498265194          1.0000   
         C         C         1.0       0.30970109638675797           0.9838352579632059 0.15136758579012963          1.0000   
         C         C         1.0       0.33378146603666325           0.00043260067374362166       0.17879466857144935          1.0000   
         H         H         1.0       0.32349748595623756           0.9607143350402165 0.14083248494940115          1.0000   
         H         H         1.0       0.3079218268991364  0.005541473512894024         0.13313628272745165          1.0000   
         H         H         1.0       0.3620353209674918  0.9986107159402678  0.16810642219526326          1.0000   
         H         H         1.0       0.3335550286063791  0.9844517674491555  0.1999076339298084 1.0000   
         C         C         1.0       0.14883079075873473           0.7674525750064984 0.17991146274050632          1.0000   
         C         C         1.0       0.1113404308307906  0.7542973192505636  0.16509915728231364          1.0000   
         H         H         1.0       0.15520038376135692           0.7518063874795494 0.20104494030235434          1.0000   
         H         H         1.0       0.17061196642960752           0.7599964116831961 0.16288817710144818          1.0000   
         H         H         1.0       0.08937141092501277           0.7508512089276762 0.18347036861621904          1.0000   
         H         H         1.0       0.11246343750058019           0.7248701725960509 0.15594402303847754          1.0000   
         C         C         1.0       0.9912799806703066  0.011128596789981016         0.11447351764731684          1.0000   
         C         C         1.0       0.970304018285427   0.973147342301472   0.11955186052478362          1.0000   
         H         H         1.0       0.020896803656419216          0.0079513491621106 0.1175789497245392 1.0000   
         H         H         1.0       0.9844054873576784  0.03126173344477712           0.1342749872871476 1.0000   
         H         H         1.0       0.9611029861330287  0.9700479515767787  0.1446736592708211 1.0000   
         H         H         1.0       0.942028599294452   0.9779700745484162  0.10907890907453144          1.0000   
         C         C         1.0       0.034323391919824475          0.22239395132525638          0.06425365034466468          1.0000   
         C         C         1.0       0.008271057681881633          0.24945472587109782          0.08443676332962036          1.0000   
         H         H         1.0       0.019187650929448852          0.2019110893468325 0.050955302242945866         1.0000   
         H         H         1.0       0.0487001907928406  0.20218381200961943           0.07938224418535533          1.0000   
         H         H         1.0       0.015018689791682194          0.24429391116284474          0.1097504840904091 1.0000   
         H         H         1.0       0.01374487157741    0.280077819877774   0.0830784252853336 1.0000   
         C         C         1.0       0.026180475163090522          0.037475662538987375         0.1956679942584546 1.0000   
         C         C         1.0       0.023836210510549183          0.9945976973048434 0.19666461531086252          1.0000   
         H         H         1.0       0.038163551331411805          0.04898854765643956          0.1742245431072992 1.0000   
         H         H         1.0       0.04407549502402608           0.04762467685849381          0.21587318729417254          1.0000   
         H         H         1.0       0.00946828068452188           0.9850078215584788 0.17507774366707937          1.0000   
         H         H         1.0       0.006083719154428957          0.9874661062681686 0.21707995613282866          1.0000   
         C         C         1.0       0.9278886105922777  0.31523209368207433           0.16937292339142282          1.0000   
         C         C         1.0       0.9041325311488276  0.29811765076981245           0.19362815088839697          1.0000   
         H         H         1.0       0.9088581850360501  0.3356994616173416  0.15648603534782074          1.0000   
         H         H         1.0       0.9352261606384507  0.29505661525069854           0.14974759772164545          1.0000   
         H         H         1.0       0.8941645211483864  0.31589010070255286           0.21287854031735895          1.0000   
         H         H         1.0       0.8762408236909677  0.2921108640218155  0.18376892925987043          1.0000   
         C         C         1.0       0.7587010743081741  0.1454695819843908  0.16622304676484434          1.0000   
         C         C         1.0       0.7503106040578745  0.18509527861888742           0.15476605559023565          1.0000   
         H         H         1.0       0.7599932529448254  0.12830396211627487           0.14518118301644103          1.0000   
         H         H         1.0       0.7360548095380635  0.1328860082676292  0.1801196946109179 1.0000   
         H         H         1.0       0.7475963188889209  0.20200217963326408           0.17639485057956025          1.0000   
         H         H         1.0       0.7225587950671265  0.1836107711715084  0.14443541990185452          1.0000   
         C         C         1.0       0.35977879901187526           0.33635368551828   0.4344594264555154 1.0000   
         C         C         1.0       0.3768454876758504  0.33923007755109236           0.4022050450368048 1.0000   
         H         H         1.0       0.365790074725617   0.3622844667992844  0.44799037998972024          1.0000   
         H         H         1.0       0.3718700283787345  0.31302566788921987           0.4481795420126849 1.0000   
         H         H         1.0       0.3611630450067323  0.363008216807842   0.39139354198597653          1.0000   
         H         H         1.0       0.40519333979767375           0.3496921314688871 0.40422823740763225          1.0000   
         C         C         1.0       0.08225688887173477           0.22709531106656244          0.395570704404127  1.0000   
         C         C         1.0       0.12233755983185193           0.21869294939777534          0.38442909036033185          1.0000   
         H         H         1.0       0.07945077499701303           0.22288539737469168          0.4212257216367126 1.0000   
         H         H         1.0       0.06523959338151486           0.20617907878073766          0.3821384941424369 1.0000   
         H         H         1.0       0.12467469320550087           0.1894794751294081 0.38112678784353005          1.0000   
         H         H         1.0       0.125241059852825   0.23173644891473677           0.36013350054617754          1.0000   
         C         C         1.0       0.21800948742489193           0.5003160346689458 0.6276428171091893 1.0000   
         C         C         1.0       0.18343849818226554           0.4787619728336797 0.6179034234614    1.0000   
         H         H         1.0       0.21554861119101215           0.5333027259592675 0.6244833836983547 1.0000   
         H         H         1.0       0.24173355555826187           0.4952925084252198 0.6112977457235783 1.0000   
         H         H         1.0       0.1599792573757943  0.48481328343138624           0.6327892652607741 1.0000   
         H         H         1.0       0.1750277188045276  0.4909098784632127  0.5956017108706766 1.0000   
         C         C         1.0       0.39236493581720355           0.3379704233606695 0.9269839468429043 1.0000   
         C         C         1.0       0.4163982606348383  0.3041466027572241  0.9396203517440243 1.0000   
         H         H         1.0       0.3714031390216421  0.34499689307692116           0.9452267896139772 1.0000   
         H         H         1.0       0.40944762512804717           0.3628481175674667 0.9238005453616871 1.0000   
         H         H         1.0       0.43765626270437585           0.3164668006753084 0.9540606700680043 1.0000   
         H         H         1.0       0.43221498252094803           0.29077230015901046          0.9196036247115782 1.0000   
         C         C         1.0       0.17185112633787106           0.24406644220049303          0.8959563207925778 1.0000   
         C         C         1.0       0.16936626296146048           0.25244849372010975          0.8604031215327769 1.0000   
         H         H         1.0       0.19946727229841743           0.23420821745941167          0.9026927773064721 1.0000   
         H         H         1.0       0.15624181173205817           0.21753400611767013          0.8970380920655712 1.0000   
         H         H         1.0       0.14471179689189503           0.26478084343034053          0.8531285479219333 1.0000   
         H         H         1.0       0.16599459408995385           0.22388133701952484          0.8506836233852354 1.0000   
         C         C         1.0       0.09858031935899692           0.07117436910757058          0.37870436321185863          1.0000   
         C         C         1.0       0.13854475534343563           0.07328700540318334          0.3912190344637799 1.0000   
         H         H         1.0       0.10163351317842717           0.05723885197088152          0.35468370022775464          1.0000   
         H         H         1.0       0.087838311830992   0.09959962692537472           0.37845252972506693          1.0000   
         H         H         1.0       0.14051040674886073           0.08127123456973795          0.4161818258051945 1.0000   
         H         H         1.0       0.1523766360245676  0.09684876728119929           0.38184202929720934          1.0000   
         C         C         1.0       0.8590442924557383  0.9540298229119903  0.44895400615585257          1.0000   
         C         C         1.0       0.8411554056296959  0.9558523246684537  0.4161131387531986 1.0000   
         H         H         1.0       0.8519348750624118  0.9260039545541433  0.4576073594402313 1.0000   
         H         H         1.0       0.8449428662932954  0.972908768494792   0.4652387267687795 1.0000   
         H         H         1.0       0.8112609396509085  0.9524381217240139  0.4184185099647257 1.0000   
         H         H         1.0       0.8474321224333723  0.9303510855427146  0.4028834677832516 1.0000   
         C         C         1.0       0.06413984709505627           0.7944616368535249 0.6255997106154664 1.0000   
         C         C         1.0       0.09527279370417863           0.8229284171017394 0.6158278952419777 1.0000   
         H         H         1.0       0.0754247480611192  0.7657346566708283  0.6236762097126174 1.0000   
         H         H         1.0       0.04150482281573198           0.7927118104450297 0.6101239337765604 1.0000   
         H         H         1.0       0.11825819495791245           0.8215700860506582 0.6332119787118562 1.0000   
         H         H         1.0       0.10822974518992279           0.8145433935737587 0.5933452830882043 1.0000   
         C         C         1.0       0.09087444864423344           0.04090572261693026          0.8897380252364392 1.0000   
         C         C         1.0       0.08796205169674232           0.02757520047872375          0.8569673211518845 1.0000   
         H         H         1.0       0.06566283102045944           0.05422661044305843          0.8987881543201847 1.0000   
         H         H         1.0       0.11099895251071867           0.06365465091804601          0.8910114771501436 1.0000   
         H         H         1.0       0.11393586484699547           0.012259853174846347         0.8519532573351963 1.0000   
         H         H         1.0       0.0969736402680541  0.05174387428702598           0.8424881097784164 1.0000   
         C         C         1.0       0.8304937737936936  0.0011932207076992274        0.9317648604531951 1.0000   
         C         C         1.0       0.8543229727082611  0.9665123556200274  0.919775820768815  1.0000   
         H         H         1.0       0.8054798223519544  0.9910297129795425  0.945033260691367  1.0000   
         H         H         1.0       0.816217972741396   0.01680292129607297           0.9138709798034904 1.0000   
         H         H         1.0       0.838697480300116   0.9433300243957616  0.9147366139298937 1.0000   
         H         H         1.0       0.8716805923696682  0.9579758346039661  0.9396274512467053 1.0000   
         C         C         1.0       0.3225344597545065  0.8836177683667099  0.4545040438656137 1.0000   
         C         C         1.0       0.32111371046461035           0.8740546909777287 0.4196981062199336 1.0000   
         H         H         1.0       0.3466212402327133  0.8696323848853676  0.4652171747718234 1.0000   
         H         H         1.0       0.29888715328391596           0.8707960437645583 0.467842850420034  1.0000   
         H         H         1.0       0.32108677420549225           0.844534260953728  0.4169752100171529 1.0000   
         H         H         1.0       0.3480194574471999  0.8825229779704863  0.40905534170056285          1.0000   
         C         C         1.0       0.21532140386772172           0.1135097692160092 0.42111280083469393          1.0000   
         C         C         1.0       0.22220697386313368           0.15529681155979547          0.43215454217855137          1.0000   
         H         H         1.0       0.21037765596050942           0.11008554973304374          0.39501867743311286          1.0000   
         H         H         1.0       0.18701409007397232           0.10940887915820818          0.43032492542040246          1.0000   
         H         H         1.0       0.22552658827512143           0.1568243947497432 0.45749895075952807          1.0000   
         H         H         1.0       0.19729832873843328           0.1705136606612276 0.4256241206118177 1.0000   
         C         C         1.0       0.18929603199440195           0.09312784040985678          0.6409934266877996 1.0000   
         C         C         1.0       0.1680499659943115  0.09182412162314746           0.6098885684412876 1.0000   
         H         H         1.0       0.18323179021371422           0.06825966158088814          0.6554202841255443 1.0000   
         H         H         1.0       0.18189982459250634           0.1154863791144527 0.6579142871884975 1.0000   
         H         H         1.0       0.15953577269158428           0.11866801193094956          0.6008423706692284 1.0000   
         H         H         1.0       0.18776028802071806           0.08245659241977932          0.5902431116008314 1.0000   
         C         C         1.0       0.3599444463821603  0.2840518283073214  0.6566893973144635 1.0000   
         C         C         1.0       0.3889123747424864  0.26371834708527586           0.6366193231332786 1.0000   
         H         H         1.0       0.35907688119488884           0.27574435883639414          0.6812377451783651 1.0000   
         H         H         1.0       0.3714177794822836  0.31292072789092695           0.6580920979282506 1.0000   
         H         H         1.0       0.4163186706547998  0.2716909977344254  0.6444527062244201 1.0000   
         H         H         1.0       0.3889212615471074  0.27641176778843185           0.6131269700103353 1.0000   
         C         C         1.0       0.14831322632906918           0.9513326376259152 0.8255265779277071 1.0000   
         C         C         1.0       0.14769329722484104           0.9094846933149262 0.8151135869985736 1.0000   
         H         H         1.0       0.12718078758719487           0.9540142198528765 0.845315653797454  1.0000   
         H         H         1.0       0.13963790462628856           0.9684438864343109 0.8056204395955382 1.0000   
         H         H         1.0       0.17261089457773116           0.9045160154953867 0.7995508813644736 1.0000   
         H         H         1.0       0.15598675002734375           0.8937955813237712 0.8359100007880037 1.0000   
         C         C         1.0       0.4370999624983391  0.21949255107084686           0.7571582362298575 1.0000   
         C         C         1.0       0.4101799385434631  0.24002434392632022           0.7360191816395367 1.0000   
         H         H         1.0       0.4521353014528036  0.23856271649409855           0.7729782601383088 1.0000   
         H         H         1.0       0.4601308273496785  0.20913928110973984           0.7427192697767089 1.0000   
         H         H         1.0       0.3944669076460897  0.21931063108723486           0.7235483938815506 1.0000   
         H         H         1.0       0.4241595260374169  0.255659217473026   0.7174690716256006 1.0000   
         C         C         1.0       0.47219496878636025           0.992909049468639  0.6997513411162742 1.0000   
         C         C         1.0       0.47371395882921563           0.015932594478464512         0.6688801074182436 1.0000   
         H         H         1.0       0.5007398545055457  0.9827267089130666  0.7023398543541249 1.0000   
         H         H         1.0       0.45728325591970787           0.9648460021592874 0.6963555117949648 1.0000   
         H         H         1.0       0.485665735607931   0.9975307919971389  0.6515772006844026 1.0000   
         H         H         1.0       0.4933980951935525  0.038372077905153734         0.6721725431373523 1.0000   
         C         C         1.0       0.3218965851378121  0.8984606860176564  0.958761640860805  1.0000   
         C         C         1.0       0.291204101247282   0.8688394473714293  0.9530019953878204 1.0000   
         H         H         1.0       0.35063296508983327           0.8865094008374542 0.9569888747841437 1.0000   
         H         H         1.0       0.3217985999242996  0.9075243172045704  0.9837916081739134 1.0000   
         H         H         1.0       0.2939564690463072  0.8444052163462943  0.9674626299757882 1.0000   
         H         H         1.0       0.2932119831298914  0.856379577366439   0.9280706627856974 1.0000   
         C         C         1.0       0.18182966547305263           0.1465120520796645 0.9589717364148489 1.0000   
         C         C         1.0       0.17929900272189828           0.13734656221830718          0.923414506886587  1.0000   
         H         H         1.0       0.16195463291871548           0.17085571481249734          0.9632862613622161 1.0000   
         H         H         1.0       0.1693037317643625  0.12418014152039317           0.9738958233347721 1.0000   
         H         H         1.0       0.18332672572308198           0.16345688517540186          0.9102534044105848 1.0000   
         H         H         1.0       0.15050687116762657           0.13055517765528044          0.9183626755974057 1.0000   
         C         C         1.0       0.029371608348641498          0.1616395766767467 0.43129440129225965          1.0000   
         C         C         1.0       0.008838762446243376          0.12662952893695184          0.44688633464553534          1.0000   
         H         H         1.0       0.02903185802135999           0.1610499356300397 0.40483102471250454          1.0000   
         H         H         1.0       0.058467114728539604          0.16190472172873946          0.43768186976709056          1.0000   
         H         H         1.0       0.004151244830537415          0.1292367008264655 0.47267707357416744          1.0000   
         H         H         1.0       0.02833348954632431           0.10317775421076412          0.445531007517059  1.0000   
         C         C         1.0       0.9176169096883885  0.4109216581296709  0.4531708462939308 1.0000   
         C         C         1.0       0.9199004646879319  0.42564623080413233           0.41855613873907965          1.0000   
         H         H         1.0       0.8893154399831475  0.4216693500153783  0.4603121455485149 1.0000   
         H         H         1.0       0.9347033478884497  0.4257492338330788  0.4691380918076111 1.0000   
         H         H         1.0       0.8974307112694093  0.4130725495576001  0.4085142523792814 1.0000   
         H         H         1.0       0.9163986528915531  0.4563932378991223  0.41816578344650457          1.0000   
         C         C         1.0       0.07600053917527672           0.20220015479055653          0.6114560095336977 1.0000   
         C         C         1.0       0.0927875589696705  0.20947859786109402           0.6438847875859981 1.0000   
         H         H         1.0       0.08388421398626612           0.1733120433878348 0.6046972754548259 1.0000   
         H         H         1.0       0.08857310358869919           0.22074083240013065          0.5913276111968336 1.0000   
         H         H         1.0       0.07248105471441324           0.21913438446849115          0.6617160751095605 1.0000   
         H         H         1.0       0.10556565067290236           0.1841059279833294 0.6543299980589892 1.0000   
         C         C         1.0       0.9062976355196954  0.019734415132761862         0.6641767074881757 1.0000   
         C         C         1.0       0.878401184659636   0.04735910756736783           0.6490285486440079 1.0000   
         H         H         1.0       0.9128315965396431  0.033905325652869626         0.6868557728041972 1.0000   
         H         H         1.0       0.8912866942900599  0.9928624484057292  0.6710224418085847 1.0000   
         H         H         1.0       0.8504952021402019  0.04573785481846748           0.6629784671790615 1.0000   
         H         H         1.0       0.8716147110287473  0.03518399361213076           0.6249125886550218 1.0000   
         C         C         1.0       0.1062896677991161  0.3411957240557281  0.8249508740657259 1.0000   
         C         C         1.0       0.09943618363134797           0.3792790556465684 0.8091061771715097 1.0000   
         H         H         1.0       0.1303740868476691  0.3428983032300554  0.8422870153976156 1.0000   
         H         H         1.0       0.11493915994960786           0.32050342565758777          0.8074603060406202 1.0000   
         H         H         1.0       0.07976387861665502           0.3771157574675702 0.7922045260831894 1.0000   
         H         H         1.0       0.08778983376717298           0.39924355104971543          0.8265611089380491 1.0000   
         C         C         1.0       0.8553098604173003  0.07865698706542389           0.7350640589277528 1.0000   
         C         C         1.0       0.8311929358082261  0.09707963122394059           0.7600955207822206 1.0000   
         H         H         1.0       0.8363891431448262  0.06745004820674438           0.7163296809728326 1.0000   
         H         H         1.0       0.8735577037058192  0.09910490503400471           0.7217343468636546 1.0000   
         H         H         1.0       0.818534953661526   0.0746964997748325  0.7733287602284324 1.0000   
         H         H         1.0       0.8086573567869946  0.11310963047635461           0.7487601957873484 1.0000   
         C         C         1.0       0.8140104470435269  0.332824495183581   0.7142653799302499 1.0000   
         C         C         1.0       0.851886731329794   0.3290092724858982  0.6943277104016982 1.0000   
         H         H         1.0       0.7895186946165188  0.322288957964736   0.701071183433562  1.0000   
         H         H         1.0       0.8096953480435107  0.3630084688873557  0.7234425158871409 1.0000   
         H         H         1.0       0.87228194209478    0.337476551662815   0.7116712332231647 1.0000   
         H         H         1.0       0.8533795348642578  0.3521005818741469  0.675829421278579  1.0000   
         C         C         1.0       0.9437899228270268  0.4017338658132687  0.9781640120061703 1.0000   
         C         C         1.0       0.9786846498859434  0.42630277919191634           0.9689315219597586 1.0000   
         H         H         1.0       0.9196051126474233  0.4156034736452658  0.9715925220626573 1.0000   
         H         H         1.0       0.9413025355293962  0.39468555184187043           0.0033013570966680117        1.0000   
         H         H         1.0       0.9741137090368427  0.45417210713575623           0.9764124858167517 1.0000   
         H         H         1.0       0.9794712968422908  0.42639606395792545           0.9427832123436952 1.0000   
         C         C         1.0       0.07403361721305712           0.13247506416705673          0.9567802726027409 1.0000   
         C         C         1.0       0.07725863422896984           0.15365628167823564          0.9244510179368309 1.0000   
         H         H         1.0       0.0858077220903406  0.15541480712121572           0.9729362912341117 1.0000   
         H         H         1.0       0.09397100837462635           0.1094054289888926 0.9573641452486752 1.0000   
         H         H         1.0       0.08305272828031862           0.13514214359775278          0.9040148142792049 1.0000   
         H         H         1.0       0.10307416093700317           0.17056827925725218          0.9244293559574325 1.0000   
         C         C         1.0       0.2963378441626793  0.5644360467996258  0.8573315373766133 1.0000   
         C         C         1.0       0.27504635624163964           0.587995152444237  0.8335780147361768 1.0000   
         H         H         1.0       0.277994470984439   0.546277030728161   0.8720189774745503 1.0000   
         H         H         1.0       0.3046964551891435  0.5851368319804896  0.8773343959144989 1.0000   
         H         H         1.0       0.2524739336952513  0.6024743083671106  0.8451745259116034 1.0000   
         H         H         1.0       0.29153692406263826           0.6099393962248191 0.821549774946684  1.0000   
         C         C         1.0       0.1800375479661194  0.4969010568505255  0.4275346720867129 1.0000   
         C         C         1.0       0.15008927252077178           0.47693310140020756          0.4465854802219135 1.0000   
         H         H         1.0       0.1734413501531248  0.5257907893452517  0.4206748113687383 1.0000   
         H         H         1.0       0.1821107951674403  0.47912914211251034           0.40607928193753107          1.0000   
         H         H         1.0       0.12531279725076475           0.4726774569832264 0.4343131836138747 1.0000   
         H         H         1.0       0.1454271517259339  0.4917771741891842  0.470779113070383  1.0000   
         C         C         1.0       0.30777293412019435           0.38959787608056823          0.5960030554722074 1.0000   
         C         C         1.0       0.34906137148862604           0.3878072190075888 0.6078577475929131 1.0000   
         H         H         1.0       0.29054401125299384           0.4042185988988081 0.6155470118882543 1.0000   
         H         H         1.0       0.2964394119286758  0.36032002267357893           0.5924568238090682 1.0000   
         H         H         1.0       0.35017032301940126           0.3668495144707306 0.6273878786390407 1.0000   
         H         H         1.0       0.3664979724985104  0.37691911927050853           0.5887123588247748 1.0000   
         C         C         1.0       0.5666678701466239  0.9890258962063313  0.8238224273942812 1.0000   
         C         C         1.0       0.5553734834837348  0.008580788019898922         0.8548540073020642 1.0000   
         H         H         1.0       0.5974375538613997  0.986782494732811   0.8257301446366239 1.0000   
         H         H         1.0       0.5621025481552265  0.007989011390429512         0.8032505433740732 1.0000   
         H         H         1.0       0.5532202426539481  0.9860448131294312  0.8729713352839975 1.0000   
         H         H         1.0       0.575399989155633   0.02805451365417344           0.8646127770135408 1.0000   
         C         C         1.0       0.4225718549834448  0.6777767093282286  0.676535084407253  1.0000   
         C         C         1.0       0.39198934490018256           0.6671821030570707 0.6539621966337371 1.0000   
         H         H         1.0       0.4200874301699884  0.6750853020150845  0.7014067697578553 1.0000   
         H         H         1.0       0.44523592628525055           0.6571948028915833 0.6734431278377295 1.0000   
         H         H         1.0       0.4026134460288499  0.6781283260299718  0.6311198576427189 1.0000   
         H         H         1.0       0.36876326281015415           0.6835256912347826 0.6617562569390464 1.0000   
         C         C         1.0       0.49829843547196817           0.05284114501715109          0.41292434396494104          1.0000   
         C         C         1.0       0.48920454089956733           0.08752766705075721          0.4352542486997881 1.0000   
         H         H         1.0       0.5247466017993351  0.059081886042848586         0.40077458908000835          1.0000   
         H         H         1.0       0.4767579114780179  0.052481105167683895         0.3950991951353509 1.0000   
         H         H         1.0       0.49194177094538866           0.11188335944588568          0.4191546648599866 1.0000   
         H         H         1.0       0.5085393293156709  0.0922141276723325  0.4552903073937254 1.0000   
         C         C         1.0       0.43843382882782633           0.6310605603687773 0.5021426840656363 1.0000   
         C         C         1.0       0.39817436535962336           0.6293631885922134 0.5149285573763974 1.0000   
         H         H         1.0       0.4557456615785519  0.6323301173510005  0.5226503392995203 1.0000   
         H         H         1.0       0.44590973472417206           0.6075827685511274 0.48952149467640316          1.0000   
         H         H         1.0       0.3796623526293734  0.6523317445527343  0.5091728876907438 1.0000   
         H         H         1.0       0.40165038096822414           0.6330577913714686 0.5410396922922905 1.0000   
         C         C         1.0       0.38061408180537754           0.9223198414464293 0.6024697226818144 1.0000   
         C         C         1.0       0.3911128448674002  0.9565621368751461  0.5847163727095539 1.0000   
         H         H         1.0       0.3621396822912704  0.9025592996071522  0.5878758234516752 1.0000   
         H         H         1.0       0.36060116722023244           0.9328877179431945 0.6193144041489115 1.0000   
         H         H         1.0       0.401759596902955   0.9794390301839537  0.6000996584468687 1.0000   
         H         H         1.0       0.36785924851631346           0.970670466553567  0.5738613553621301 1.0000   
         C         C         1.0       0.9486872465985857  0.7271015303097091  0.845751391389077  1.0000   
         C         C         1.0       0.9670835918592549  0.7051922007174544  0.8181385669174819 1.0000   
         H         H         1.0       0.9678189651461462  0.7441321787869508  0.8596057777262786 1.0000   
         H         H         1.0       0.9392667188020033  0.7049442173091847  0.8622950044195642 1.0000   
         H         H         1.0       0.9866588255879616  0.6843384003429039  0.8274112329400403 1.0000   
         H         H         1.0       0.9485259392912636  0.6863193308306847  0.8049457949797151 1.0000   
         C         C         1.0       0.6678629010185922  0.826279756907974   0.6603956184205928 1.0000   
         C         C         1.0       0.6490237121257421  0.8463382319309248  0.6332241022008678 1.0000   
         H         H         1.0       0.6541290003783554  0.7999791955311156  0.6625945113643958 1.0000   
         H         H         1.0       0.6621869237313998  0.8417549129557682  0.681376857388049  1.0000   
         H         H         1.0       0.6539932622648893  0.8301084005150707  0.6124983818897948 1.0000   
         H         H         1.0       0.661851991650089   0.8741978236777715  0.6299806148854669 1.0000   
         C         C         1.0       0.05269823223704262           0.7852054697520331 0.4161644035545137 1.0000   
         C         C         1.0       0.08140554426678204           0.8065828477565815 0.43384826994696135          1.0000   
         H         H         1.0       0.06368392806343559           0.7576791941741597 0.41039043832032485          1.0000   
         H         H         1.0       0.05376304341944249           0.799949492781861  0.39291367165252045          1.0000   
         H         H         1.0       0.10826303734612397           0.8040724458242717 0.4216336555974517 1.0000   
         H         H         1.0       0.08804982271602046           0.7946436747186558 0.4580999328805776 1.0000   
         C         C         1.0       0.6465202790968351  0.8127422658681094  0.5311325844938625 1.0000   
         C         C         1.0       0.6307482099930092  0.8512197781167294  0.5439991977120332 1.0000   
         H         H         1.0       0.6259413434745974  0.7932945162130298  0.5183396436826152 1.0000   
         H         H         1.0       0.6552251601497842  0.7975583227595245  0.5514422826058081 1.0000   
         H         H         1.0       0.6265128169805747  0.8492324428235397  0.5677717226350933 1.0000   
         H         H         1.0       0.6525578940685262  0.872151051271751   0.5415777594928867 1.0000   
         C         C         1.0       0.9619653690805914  0.8832343322835666  0.5897359021038957 1.0000   
         C         C         1.0       0.9287753008318537  0.8991135405677187  0.6102545610347179 1.0000   
         H         H         1.0       0.9792965545667862  0.8684006919627058  0.6049885278404312 1.0000   
         H         H         1.0       0.9785011674085566  0.9077373480042333  0.5844945164454901 1.0000   
         H         H         1.0       0.9131764775992975  0.917452883586418   0.5957481500368406 1.0000   
         H         H         1.0       0.9412296213532073  0.9158712294997703  0.6282038557004075 1.0000   
         C         C         1.0       0.6820927256436705  0.3111262482338871  0.8386070273046908 1.0000   
         C         C         1.0       0.6975638562276316  0.29651397773846816           0.8695774161921132 1.0000   
         H         H         1.0       0.6527623882755804  0.3177324046207218  0.8429314614299478 1.0000   
         H         H         1.0       0.6840053075063881  0.2899982186637885  0.8199657690903288 1.0000   
         H         H         1.0       0.6773278081103647  0.2773647181384312  0.8822437027111569 1.0000   
         H         H         1.0       0.7005546231875401  0.3216001329071062  0.8855722021863978 1.0000   
         C         C         1.0       0.8055100220492563  0.6236098928189363  0.661564805348285  1.0000   
         C         C         1.0       0.8316887660703519  0.6348630932237677  0.6347867314923075 1.0000   
         H         H         1.0       0.779698895632738   0.6405692713789102  0.6589018172632    1.0000   
         H         H         1.0       0.81329133548421    0.6305857086851517  0.6879614770628717 1.0000   
         H         H         1.0       0.8578508059014784  0.6199094601664563  0.6345853314772638 1.0000   
         H         H         1.0       0.8176043418101017  0.6286970449808611  0.6120238048197162 1.0000   
         C         C         1.0       0.5851345873840699  0.4866715000494705  0.6493128039510514 1.0000   
         C         C         1.0       0.6013553070368897  0.46455965281717754           0.6207550842192975 1.0000   
         H         H         1.0       0.5966900122953026  0.4771856990969916  0.6714585758258445 1.0000   
         H         H         1.0       0.5989155387170253  0.5141855868823408  0.6496785992686346 1.0000   
         H         H         1.0       0.5975616489066446  0.4800822286227348  0.5990696455589033 1.0000   
         H         H         1.0       0.5860521432854718  0.43814854691334343           0.6178694778295314 1.0000   
         C         C         1.0       0.7588141896512106  0.2097704481130538  0.44843118041654617          1.0000   
         C         C         1.0       0.74174666720601    0.23138117815606485           0.4220430382467564 1.0000   
         H         H         1.0       0.7549812907960269  0.17858953817156165           0.44742550799637   1.0000   
         H         H         1.0       0.739488101464737   0.21499411351705533           0.4689925524535687 1.0000   
         H         H         1.0       0.7591478682038624  0.22721210857439164           0.40191566841321963          1.0000   
         H         H         1.0       0.7145076411864195  0.21856813248139614           0.41749549998047686          1.0000   
         C         C         1.0       0.7874325735132789  0.6530525355205844  0.5038016967224894 1.0000   
         C         C         1.0       0.8227963857788197  0.6576746912184747  0.5221570858753274 1.0000   
         H         H         1.0       0.7632296057074627  0.6484478593823739  0.5207189263096911 1.0000   
         H         H         1.0       0.7825767170543418  0.6819118940244716  0.49343173740169455          1.0000   
         H         H         1.0       0.8390275417584864  0.6298311278738691  0.5229241733918538 1.0000   
         H         H         1.0       0.8154295556747118  0.6632874662469352  0.546593879827329  1.0000   
         C         C         1.0       0.595525549709294   0.49928044531588583           0.4886748389429099 1.0000   
         C         C         1.0       0.6071897380139512  0.4658521625170907  0.5074380890843933 1.0000   
         H         H         1.0       0.589540657376682   0.5227107652357343  0.5028217236015214 1.0000   
         H         H         1.0       0.6153934077372045  0.5094215749347648  0.4702176612229757 1.0000   
         H         H         1.0       0.5855359110224507  0.4425278218702385  0.5027195961288176 1.0000   
         H         H         1.0       0.6076754679683819  0.4729832324675462  0.5323525018635458 1.0000   
         C         C         1.0       0.8216631700166601  0.3226384928414398  0.5782541774347737 1.0000   
         C         C         1.0       0.8421584887796004  0.35057327772876407           0.5972765656563621 1.0000   
         H         H         1.0       0.8419136986452452  0.3022420641468231  0.5676343396669153 1.0000   
         H         H         1.0       0.8021994615284567  0.3088675721337965  0.5924181348116401 1.0000   
         H         H         1.0       0.8642363630817855  0.36651180875328415           0.5833912791892503 1.0000   
         H         H         1.0       0.8579168105570811  0.3356920869331134  0.6152052423779449 1.0000   
         C         C         1.0       0.31889063217154484           0.5398793758911689 0.9668498715800776 1.0000   
         C         C         1.0       0.3170581053617256  0.5426902334265008  0.003590480225331927         1.0000   
         H         H         1.0       0.29136236995435405           0.5414341324222968 0.9553369781023829 1.0000   
         H         H         1.0       0.32917880046825865           0.5127858914549391 0.9588988082375081 1.0000   
         H         H         1.0       0.3162479114140439  0.5731227955139572  0.010041845708139263         1.0000   
         H         H         1.0       0.3449068688735265  0.5347160019079343  0.01249142144287041          1.0000   
         C         C         1.0       0.33259990084153257           0.807101731190848  0.8852303249642282 1.0000   
         C         C         1.0       0.3371095346103651  0.8248404673336457  0.8530667964106843 1.0000   
         H         H         1.0       0.3033546628205007  0.8011780735682489  0.8919551415021119 1.0000   
         H         H         1.0       0.34216158509688227           0.8264596410314764 0.9034617565059592 1.0000   
         H         H         1.0       0.3219625872315086  0.8542612507323966  0.8508152847981248 1.0000   
         H         H         1.0       0.3230981010274713  0.8081595073644483  0.8351147904528448 1.0000   
         C         C         1.0       0.5298299642943405  0.6418918957967924  0.8392154833379992 1.0000   
         C         C         1.0       0.547988704800542   0.6044959963546391  0.8482989893418597 1.0000   
         H         H         1.0       0.5220577154358962  0.6371767300579667  0.8140479892888616 1.0000   
         H         H         1.0       0.5511163540937327  0.66244907877762    0.8364932005700045 1.0000   
         H         H         1.0       0.5601943803346162  0.6052856673581596  0.8728062560101681 1.0000   
         H         H         1.0       0.5734899752475192  0.6008980696386749  0.8359898999932266 1.0000   
         C         C         1.0       0.1780752655934882  0.46549454921299577           0.31770021404663146          1.0000   
         C         C         1.0       0.17213399905460747           0.47598252106404754          0.2827637454145887 1.0000   
         H         H         1.0       0.17974341947293382           0.4908928820041012 0.3335575520758769 1.0000   
         H         H         1.0       0.206635732072944   0.4505920518196629  0.3201204290586437 1.0000   
         H         H         1.0       0.14976658254856925           0.496427848746184  0.2788229581435613 1.0000   
         H         H         1.0       0.1638290239834384  0.4526624281784033  0.2666867210510789 1.0000   
         C         C         1.0       0.2519793331563606  0.6467033911901868  0.08874499746216147          1.0000   
         C         C         1.0       0.2331475470370983  0.6080490518496936  0.09368791055035652          1.0000   
         H         H         1.0       0.2389110317551622  0.6590953227729579  0.06731028209957057          1.0000   
         H         H         1.0       0.2422104352724033  0.666773940771571   0.10502507192098882          1.0000   
         H         H         1.0       0.24049589950034053           0.5903017765551878 0.0737382871116452 1.0000   
         H         H         1.0       0.20391538426618463           0.6114568409297856 0.08860430097014671          1.0000   
         C         C         1.0       0.29869878338178285           0.7636820084822247 0.34874772605693455          1.0000   
         C         C         1.0       0.3252721652004924  0.797461817444583   0.3543812424220827 1.0000   
         H         H         1.0       0.29424545058599993           0.749357439470877  0.37117991696324076          1.0000   
         H         H         1.0       0.2703217278749458  0.7720798352814913  0.34268657358415644          1.0000   
         H         H         1.0       0.31129206337386756           0.8213710913001994 0.36645185432936794          1.0000   
         H         H         1.0       0.33326540582478675           0.8110514345513844 0.3313010562074082 1.0000   
         C         C         1.0       0.5214451006392663  0.5844865165435701  0.3437141247844673 1.0000   
         C         C         1.0       0.5154799814901797  0.5910833514007379  0.30930475534195984          1.0000   
         H         H         1.0       0.518586531695381   0.6121618062467727  0.35677106334666686          1.0000   
         H         H         1.0       0.5495616423515377  0.5776849402614616  0.34695544694858094          1.0000   
         H         H         1.0       0.5203330125512149  0.563551989114793   0.29816011211246707          1.0000   
         H         H         1.0       0.5371773944103487  0.6065112541510566  0.29843931390417344          1.0000   
         C         C         1.0       0.7642293661566459  0.3582136795535122  0.9587184121290088 1.0000   
         C         C         1.0       0.7629575748440409  0.3460809745052194  0.9927526638551517 1.0000   
         H         H         1.0       0.7750350066869443  0.33464351012851495           0.9431675672627474 1.0000   
         H         H         1.0       0.7844517864001995  0.3797678899809921  0.956048499959013  1.0000   
         H         H         1.0       0.73493424499247    0.3364389886329459  0.99826014966281   1.0000   
         H         H         1.0       0.7627894371008619  0.3730504551557221  0.008009442221437402         1.0000   
         C         C         1.0       0.6336169576192754  0.5526114120323969  0.8671509324723911 1.0000   
         C         C         1.0       0.6748730340397696  0.5620176884730201  0.8791680502842615 1.0000   
         H         H         1.0       0.6360289349265449  0.5552317370736205  0.8408304911097748 1.0000   
         H         H         1.0       0.6165624897758206  0.5767757189018431  0.8734337927069876 1.0000   
         H         H         1.0       0.6764505124520654  0.5591707879254164  0.9050209386743563 1.0000   
         H         H         1.0       0.6795443359465314  0.5917931008389526  0.8759557551243865 1.0000   
         C         C         1.0       0.4707823403930702  0.34072628963520246           0.8534313294887782 1.0000   
         C         C         1.0       0.5116157581226759  0.3263818334594633  0.8559333029610976 1.0000   
         H         H         1.0       0.4560415281074887  0.33605397638514356           0.8752347126180753 1.0000   
         H         H         1.0       0.4549211794281986  0.3246592898711183  0.8359431881189823 1.0000   
         H         H         1.0       0.5111234685835041  0.29522804254103885           0.8555637289476355 1.0000   
         H         H         1.0       0.5238498228516631  0.3312071688645705  0.8340881033013969 1.0000   
         C         C         1.0       0.47300267118476114           0.48238058583340765          0.12391327507999049          1.0000   
         C         C         1.0       0.4420173423967001  0.4943373631322926  0.10201102777722437          1.0000   
         H         H         1.0       0.4634905103097421  0.4570410217663795  0.13694524675273312          1.0000   
         H         H         1.0       0.4774086240985134  0.5032931300423512  0.14381409055039115          1.0000   
         H         H         1.0       0.44779481346545463           0.4751332003403142 0.07969742212785791          1.0000   
         H         H         1.0       0.4153019770570124  0.4886749969956081  0.11319928939707546          1.0000   
         C         C         1.0       0.7954800587067449  0.23280405003928265           0.3384014604127709 1.0000   
         C         C         1.0       0.7898024987852991  0.22797339515081866           0.3020722276738892 1.0000   
         H         H         1.0       0.769353969612566   0.2313206622407632  0.35167520406220176          1.0000   
         H         H         1.0       0.813253541641237   0.2590440505523449  0.34294264000835406          1.0000   
         H         H         1.0       0.8161437967298633  0.22180273753327043           0.2909016000485889 1.0000   
         H         H         1.0       0.7750404859370212  0.20173282163409637           0.2972088311792178 1.0000   
         C         C         1.0       0.46067037171015446           0.4944924060426834 0.226364361061747  1.0000   
         C         C         1.0       0.43327177586113524           0.46937744000184406          0.20896504946625574          1.0000   
         H         H         1.0       0.4473831267383221  0.5127542165412681  0.24413295638707783          1.0000   
         H         H         1.0       0.4716210382492319  0.5162320049786413  0.20969877168841722          1.0000   
         H         H         1.0       0.4405683293599236  0.4662516769239665  0.18482231915040861          1.0000   
         H         H         1.0       0.4325612951661998  0.4422714684634327  0.21922559017641655          1.0000   
         C         C         1.0       0.6861048481683153  0.2559645139616534  0.1132257914547434 1.0000   
         C         C         1.0       0.6463851124791524  0.2615115238871898  0.10134369052689428          1.0000   
         H         H         1.0       0.7054163542229176  0.26673521643236947           0.09463530166092939          1.0000   
         H         H         1.0       0.6944249618382454  0.22589262074349187           0.11268916063210015          1.0000   
         H         H         1.0       0.6421663465715816  0.24667257825937478           0.07836124917877263          1.0000   
         H         H         1.0       0.6264824405385597  0.25025835816745634           0.11930071973652445          1.0000   
         C         C         1.0       0.629206481543068   0.5769559212078107  0.3357133774488841 1.0000   
         C         C         1.0       0.6690835949477283  0.5910643295729695  0.33389743988109494          1.0000   
         H         H         1.0       0.6084913942098742  0.5926039591665381  0.3229724325481363 1.0000   
         H         H         1.0       0.6195512469168076  0.58093146959845    0.3606340485335103 1.0000   
         H         H         1.0       0.6720151052181111  0.6212771050233321  0.34283034888960773          1.0000   
         H         H         1.0       0.6771672951472015  0.5938555599888903  0.3087577426371244 1.0000   
         C         C         1.0       0.5317883390649021  0.2997537184832342  0.3634129027667414 1.0000   
         C         C         1.0       0.4910259404278451  0.3043590893448494  0.37053546159500483          1.0000   
         H         H         1.0       0.5480793811923897  0.2951409753579996  0.386599151803656  1.0000   
         H         H         1.0       0.5357500812496493  0.27457429340074013           0.34803667460575327          1.0000   
         H         H         1.0       0.4820992847565423  0.28194910330324746           0.38646088617612806          1.0000   
         H         H         1.0       0.47438386460550497           0.2988751132586927 0.34930611963254005          1.0000   
         C         C         1.0       0.965892083961027   0.7367403691125486  0.9600685299779385 1.0000   
         C         C         1.0       0.9675710574104193  0.7348917437185325  0.9958579359804305 1.0000   
         H         H         1.0       0.993519086512627   0.7376093329020419  0.9498436759837925 1.0000   
         H         H         1.0       0.9518943019882581  0.763229533205559   0.9548029571797536 1.0000   
         H         H         1.0       0.9768652376532238  0.7065120088925045  0.0028407585020904236        1.0000   
         H         H         1.0       0.9389378840614752  0.7337227303384248  0.00439031878544327          1.0000   
         C         C         1.0       0.7376951462723649  0.6441285191693756  0.8482605189253841 1.0000   
         C         C         1.0       0.7127958645995315  0.6802631117849762  0.8554393241661313 1.0000   
         H         H         1.0       0.7480038955368341  0.6447011906917502  0.8244158655933911 1.0000   
         H         H         1.0       0.7191703910448525  0.618116286908093   0.8486607648982769 1.0000   
         H         H         1.0       0.710056954293377   0.6793971161670458  0.8818951687381583 1.0000   
         H         H         1.0       0.6848187048885995  0.6783354526268109  0.8443363377844215 1.0000   
         C         C         1.0       0.9216139916961469  0.47245963858747886           0.8814635792203981 1.0000   
         C         C         1.0       0.9148342534439835  0.4640482500901643  0.8457282226927382 1.0000   
         H         H         1.0       0.9519039551328686  0.4767274438392885  0.886202747742469  1.0000   
         H         H         1.0       0.9086760989239384  0.450367151374345   0.8966391733996978 1.0000   
         H         H         1.0       0.929041929544841   0.436695999969854   0.839718397587631  1.0000   
         H         H         1.0       0.9278507025859198  0.48482094523845914           0.8308727998327571 1.0000   
         C         C         1.0       0.7392610458287227  0.5405794719976047  0.10876695816847584          1.0000   
         C         C         1.0       0.7475706634929157  0.498554482636094   0.1063917137927791 1.0000   
         H         H         1.0       0.7278364390494374  0.544402230819041   0.1333803381202181 1.0000   
         H         H         1.0       0.713717947980078   0.5498002341950414  0.09427534327745368          1.0000   
         H         H         1.0       0.7577298055212468  0.48984314452728195           0.12933052410103704          1.0000   
         H         H         1.0       0.7705385189659301  0.4951754844166973  0.08875118744495158          1.0000   
         C         C         1.0       0.06819490393922423           0.8361876866678613 0.31873405922030085          1.0000   
         C         C         1.0       0.07492350759953426           0.8244148025595083 0.2843318184902209 1.0000   
         H         H         1.0       0.0643516208185575  0.8112327883747937  0.3344129276534846 1.0000   
         H         H         1.0       0.04297936243293976           0.8540677494175692 0.32103960971172535          1.0000   
         H         H         1.0       0.10030764804843662           0.8077411256126217 0.2830972855932107 1.0000   
         H         H         1.0       0.0834114607413301  0.8498828935169014  0.2716825044621207 1.0000   
         C         C         1.0       0.7761168576878175  0.5206174668858204  0.20105433668867378          1.0000   
         C         C         1.0       0.7976551128452167  0.48472856592106917           0.1930576699852357 1.0000   
         H         H         1.0       0.765299638699308   0.5318002335990984  0.18141986189094136          1.0000   
         H         H         1.0       0.7514351712004618  0.5117656722022697  0.2136996181916866 1.0000   
         H         H         1.0       0.8250559601303669  0.48818600541811613           0.20519257571433525          1.0000   
         H         H         1.0       0.8056945019816032  0.48182910670268025           0.16745571304596865          1.0000   
         C         C         1.0       0.02599401942262003           0.6904947509649045 0.10036480713534097          1.0000   
         C         C         1.0       0.011529186715705242          0.6513564237602658 0.09394537700003913          1.0000   
         H         H         1.0       0.02417706973760758           0.7081267319623457 0.08010878327599258          1.0000   
         H         H         1.0       0.055000107567041656          0.6880938461116003 0.10275565182151515          1.0000   
         H         H         1.0       0.01574735380738357           0.632424739465796  0.11467886496662325          1.0000   
         H         H         1.0       0.02910451022117111           0.6397158736536378 0.0736417145202779 1.0000   
         C         C         1.0       0.7285665941512127  0.6908546610094777  0.32327751281772665          1.0000   
         C         C         1.0       0.7194256965782752  0.6927387319594797  0.3591935601923493 1.0000   
         H         H         1.0       0.7252553348414128  0.7205260713391228  0.3127699807827565 1.0000   
         H         H         1.0       0.7071071516265376  0.6720812476855821  0.3113554718114959 1.0000   
         H         H         1.0       0.6876727451976852  0.6921848122357761  0.36221164266102324          1.0000   
         H         H         1.0       0.7293114108550289  0.6670362879860525  0.37145328041668363          1.0000   
         C         C         1.0       0.9647064714214751  0.5452230767832544  0.3579539722433756 1.0000   
         C         C         1.0       0.943810227316027   0.5075161686646987  0.3634781814906403 1.0000   
         H         H         1.0       0.9921274307152351  0.5386366761224166  0.3505137617884348 1.0000   
         H         H         1.0       0.9674762857454107  0.5603762843288863  0.37992444192876074          1.0000   
         H         H         1.0       0.9602958687327722  0.49108000558088927           0.38081389434807444          1.0000   
         H         H         1.0       0.9485505791065763  0.4900543915776524  0.34228109652868605          1.0000   
         C         C         1.0       0.5018771702805914  0.9536818964027599  0.9479690588751692 1.0000   
         C         C         1.0       0.501535369365605   0.9549340789454129  0.9842175599669405 1.0000   
         H         H         1.0       0.49509596032697034           0.9806785426611971 0.9356215565650713 1.0000   
         H         H         1.0       0.4774931346236897  0.9339764931165302  0.9426257140805062 1.0000   
         H         H         1.0       0.5277187433074179  0.9643210422536489  0.9945322879617798 1.0000   
         H         H         1.0       0.5004542417855898  0.9258924684251191  0.9951935240225912 1.0000   
         C         C         1.0       0.7719619089991616  0.9784228031011245  0.861937223098206  1.0000   
         C         C         1.0       0.782200491287439   0.9628122373991131  0.8300117281207389 1.0000   
         H         H         1.0       0.7665880829287595  0.007514622545061522         0.8612984295544952 1.0000   
         H         H         1.0       0.7952987857911228  0.9758276524962072  0.876909762930024  1.0000   
         H         H         1.0       0.8081491766971024  0.9786602782599982  0.8229555281102703 1.0000   
         H         H         1.0       0.7632821953205737  0.9726369071843153  0.8113735041689301 1.0000   
         C         C         1.0       0.5922133471047935  0.7384729921962144  0.8775045917475137 1.0000   
         C         C         1.0       0.6307693575128014  0.7482580275399969  0.8639749136370525 1.0000   
         H         H         1.0       0.5923241220308162  0.7404338587745496  0.9031790490493617 1.0000   
         H         H         1.0       0.5887201870340014  0.7092273875374205  0.8716477702715779 1.0000   
         H         H         1.0       0.6300090934999469  0.747485916952359   0.8377356519373026 1.0000   
         H         H         1.0       0.6505921049389771  0.7251423035704176  0.8683465542749835 1.0000   
         C         C         1.0       0.7863037516513925  0.8245134686423199  0.12029592379984953          1.0000   
         C         C         1.0       0.8223914872356984  0.8136821588196272  0.10283297991273319          1.0000   
         H         H         1.0       0.7789625826386082  0.8018841366763892  0.13693559564072166          1.0000   
         H         H         1.0       0.7965689518009971  0.8463323144481067  0.13393083675460926          1.0000   
         H         H         1.0       0.8465756220614405  0.8234088311925845  0.11754764968707414          1.0000   
         H         H         1.0       0.8254511851229557  0.8306383482121615  0.08101653172896396          1.0000   
         C         C         1.0       0.5157577821001926  0.7692516320538956  0.10190251174072969          1.0000   
         C         C         1.0       0.5122002180029881  0.8106903052119644  0.0895811039718626 1.0000   
         H         H         1.0       0.5428469921853474  0.7580236189434784  0.09597375399332395          1.0000   
         H         H         1.0       0.5174944422313937  0.7693604057328894  0.12744212302625169          1.0000   
         H         H         1.0       0.4878459699680289  0.8253516929283683  0.10071644516992799          1.0000   
         H         H         1.0       0.5017639748057566  0.8116195921618083  0.06464647241807886          1.0000   
         C         C         1.0       0.44789838767629536           0.06259900792032891          0.29064839549024574          1.0000   
         C         C         1.0       0.44372786598159514           0.061273800412774415         0.3274156245823895 1.0000   
         H         H         1.0       0.4634169858772531  0.08982737245388273           0.2861023757162208 1.0000   
         H         H         1.0       0.4196913678281877  0.06684628406008586           0.2820592241211996 1.0000   
         H         H         1.0       0.4338309072869827  0.03201655497361555           0.3333531655908825 1.0000   
         H         H         1.0       0.47139672464502075           0.05945473181476979          0.3400356822620687 1.0000   
         C         C         1.0       0.7825890701731374  0.7936823281518409  0.22246504776906878          1.0000   
         C         C         1.0       0.8082866492928564  0.8243935082580878  0.2107268394472743 1.0000   
         H         H         1.0       0.7981580353834893  0.7750058873875257  0.23926012721669485          1.0000   
         H         H         1.0       0.777514480011291   0.7740963125018876  0.20421542385172517          1.0000   
         H         H         1.0       0.7970986599672647  0.8365002609388852  0.18986603436385657          1.0000   
         H         H         1.0       0.8047061032117174  0.8459746968774131  0.2278879144832667 1.0000   
         C         C         1.0       0.47329796572132066           0.7765664253819798 0.19274223668695048          1.0000   
         C         C         1.0       0.4500959352616889  0.8094444893753066  0.17831918504780825          1.0000   
         H         H         1.0       0.49282177636175345           0.7874473400456238 0.2112675349735896 1.0000   
         H         H         1.0       0.4921685149613845  0.7625293444627611  0.17670448331822752          1.0000   
         H         H         1.0       0.4477310027458824  0.8039031711017693  0.1514349576115662 1.0000   
         H         H         1.0       0.42019326334784945           0.8075941104866249 0.18570382977066952          1.0000   
         C         C         1.0       0.6271155624995605  0.04677023096886912           0.11713962310604781          1.0000   
         C         C         1.0       0.5884067978739189  0.055843711107402605         0.1287585190053696 1.0000   
         H         H         1.0       0.6475512880345892  0.047492317385765315         0.13549228839035427          1.0000   
         H         H         1.0       0.6365488578519691  0.06884517278418145           0.10106414576179779          1.0000   
         H         H         1.0       0.5711944770220625  0.055891266479086266         0.10673550250320117          1.0000   
         H         H         1.0       0.5836475436123456  0.08607344605446499           0.1383785010069603 1.0000   
         C         C         1.0       0.696355938154252   0.9789636537985581  0.3643439941884907 1.0000   
         C         C         1.0       0.7371061447828825  0.9738429666205527  0.3722387179664573 1.0000   
         H         H         1.0       0.6955203747718094  0.008195463667807212         0.35385125851558397          1.0000   
         H         H         1.0       0.6794608192389907  0.9827927050175428  0.3862087038813561 1.0000   
         H         H         1.0       0.7498338048178186  0.9991040386639791  0.3825316935904246 1.0000   
         H         H         1.0       0.7505803584207085  0.976170780298566   0.3486955021901222 1.0000   
         C         C         1.0       0.5931182096627539  0.6991115936973209  0.361628020128181  1.0000   
         C         C         1.0       0.6010291644169131  0.7087545357614862  0.32736510669074337          1.0000   
         H         H         1.0       0.6192249945686096  0.7001250689076658  0.3741257196044827 1.0000   
         H         H         1.0       0.5877006079730253  0.6685119733142226  0.3646755404410294 1.0000   
         H         H         1.0       0.6233567361020934  0.6896296932340242  0.3185317890442763 1.0000   
         H         H         1.0       0.5766954989953026  0.6987591013615556  0.3130527513201802 1.0000

