data_0
_chemical_formula_structural 
                                        C6H4C38H24C6H4C38H24C6H4C38H24C6H4C38H24C6H4C38H24C6H4C38H24C6H4C38H24C6H4C38H24C6H4C38H24C6H4C38H24C6H4C38H24C6H4C38H24C6H4C38H24C6H4C38H24C6H4C38H24C6H4C38H24C6H4C38H24C6H4C38H24C6H4C38H24C6H4C38H24C6H4C38H24C6H4C38H24C6H4C38H24C6H4C38H24C6H4C38H24C6H4C38H24C6H4C38H24C6H4C38H24C6H4C38H24C6H4C38H24C6H4C38H24C6H4C38H24C2H4C2H4C2H4C2H4C2H4C2H4C2H4C2H4C2H4C2H4C2H4C2H4C2H4C2H4C2H4C2H4C2H4C2H4C2H4C2H4C2H4C2H4C2H4C2H4C2H4C2H4C2H4C2H4C2H4C2H4C2H4C2H4C2H4C2H4C2H4C2H4C2H4C2H4C2H4C2H4C2H4C2H4C2H4C2H4C2H4C2H4C2H4C2H4C2H4C2H4C2H4C2H4C2H4C2H4C2H4C2H4C2H4C2H4C2H4C2H4C2H4C2H4C2H4C2H4C2H4C2H4C2H4C2H4C2H4C2H4C2H4C2H4C2H4C2H4C2H4C2H4C2H4C2H4C2H4C2H4C2H4C2H4C2H4C2H4C2H4C2H4C2H4C2H4C2H4C2H4C2H4C2H4C2H4C2H4C2H4C2H4
_chemical_formula_sum                   'C1600 H1280'
_cell_length_a                          35.67745394035177
_cell_length_b                          36.53562957448921
_cell_length_c                          43.25773830406097
_cell_angle_alpha                       90.49570508184314
_cell_angle_beta                        91.38946133003957
_cell_angle_gamma                       90.09270202155047
_space_group_name_H-M_alt               'P 1'
_space_group_IT_number                  1
loop_
  _space_group_symop_operation_xyz
         'x, y, z' 
loop_
  _atom_site_type_symbol
  _atom_site_label
  _atom_site_symmetry_multiplicity
  _atom_site_fract_x
  _atom_site_fract_y
  _atom_site_fract_z
  _atom_site_occupancy
         C         C         1.0       0.531490363643327   0.8387564542553978  0.21333723732455678          1.0000   
         C         C         1.0       0.5512088525090771  0.8142892970672415  0.2326318849553358 1.0000   
         C         C         1.0       0.5412010830934775  0.810213023613528   0.26274953259786143          1.0000   
         C         C         1.0       0.5101576822842291  0.8259819931605689  0.2738378627441787 1.0000   
         C         C         1.0       0.4901815718822147  0.8505721473875151  0.2548689399021921 1.0000   
         C         C         1.0       0.4991256183924038  0.8535257951604601  0.22408772963425938          1.0000   
         H         H         1.0       0.5781164673401835  0.805711328760809   0.22381550275469111          1.0000   
         H         H         1.0       0.558812763604988   0.7951752040170986  0.27886532316222606          1.0000   
         H         H         1.0       0.46606611512792395           0.8658128086648781 0.2595975610565376 1.0000   
         H         H         1.0       0.48229281789376    0.8714070282220671  0.20868596347084414          1.0000   
         C         C         1.0       0.5474715413485025  0.855935977025306   0.3388915512003556 1.0000   
         C         C         1.0       0.5133579535762285  0.8578374054945466  0.32206254864312955          1.0000   
         C         C         1.0       0.4963228200042111  0.8930284436681678  0.3190271611819021 1.0000   
         C         C         1.0       0.5131452931957128  0.924015185465877   0.3336231641396803 1.0000   
         C         C         1.0       0.5470713254013571  0.919134611361196   0.349605906771284  1.0000   
         C         C         1.0       0.5647544994110419  0.8858623864454385  0.34982090198879806          1.0000   
         C         C         1.0       0.49617511035154566           0.8206040188817335 0.3083670503608132 1.0000   
         C         C         1.0       0.5037806273436143  0.784570111753198   0.3281562024600286 1.0000   
         C         C         1.0       0.49697034238064836           0.7868274654703014 0.35893838147296975          1.0000   
         C         C         1.0       0.4912313474926617  0.7573110940505782  0.37688431904104064          1.0000   
         C         C         1.0       0.4974326417005686  0.7224780520865003  0.3645770244327235 1.0000   
         C         C         1.0       0.5053724658541474  0.7197920771936385  0.33306584101096465          1.0000   
         C         C         1.0       0.5105643017508823  0.7516272388263474  0.3168340476761221 1.0000   
         C         C         1.0       0.4357437226921395  0.7924380841623297  0.2830253481947206 1.0000   
         C         C         1.0       0.3999121478357897  0.7817911542843997  0.2849484541011593 1.0000   
         C         C         1.0       0.3756166091744527  0.7962739412336761  0.30721763238298316          1.0000   
         C         C         1.0       0.3910464046734647  0.8204675972661167  0.3279508095401218 1.0000   
         C         C         1.0       0.4291957872969367  0.8300791387178852  0.3282703017545315 1.0000   
         C         C         1.0       0.45159796544021674           0.815291759527435  0.3057546140814531 1.0000   
         C         C         1.0       0.33490792383375984           0.777668939990401  0.30956517361650726          1.0000   
         C         C         1.0       0.2541674901085039  0.8250924315200507  0.3743519187240077 1.0000   
         C         C         1.0       0.2736028574970156  0.8461392787888691  0.35414454418067104          1.0000   
         C         C         1.0       0.2997002691021215  0.8316369917806186  0.33560640411028897          1.0000   
         C         C         1.0       0.30767089976890477           0.7947767472411965 0.33438495154941733          1.0000   
         C         C         1.0       0.284485265365921   0.7735663304054883  0.35340313517119715          1.0000   
         C         C         1.0       0.26147239602229233           0.7879774866826276 0.37594169503116764          1.0000   
         C         C         1.0       0.346455043596283   0.7364514653558104  0.3187408946831587 1.0000   
         C         C         1.0       0.36862086359353147           0.7304727108466779 0.3455274633328656 1.0000   
         C         C         1.0       0.38921161463369547           0.6994684622406515 0.34984142223626785          1.0000   
         C         C         1.0       0.38771806061018727           0.6729819714454066 0.32806933779549485          1.0000   
         C         C         1.0       0.36481483269460446           0.6748764649577105 0.3024480820862289 1.0000   
         C         C         1.0       0.3466247713451325  0.7075982410451395  0.2971770490383168 1.0000   
         C         C         1.0       0.3249175839407214  0.8013773872936356  0.2529315105889539 1.0000   
         C         C         1.0       0.31083142003901354           0.7969564951519468 0.22381215272201893          1.0000   
         C         C         1.0       0.28314341024425904           0.7717854730186681 0.21907912759558212          1.0000   
         C         C         1.0       0.2652005982355956  0.7541616238922989  0.24322649967352067          1.0000   
         C         C         1.0       0.2809474020608112  0.7610662391517219  0.2719823288363665 1.0000   
         C         C         1.0       0.31311880999283315           0.7820282570952841 0.2775473574473426 1.0000   
         H         H         1.0       0.5607544356927531  0.8294876740253101  0.34195359418262405          1.0000   
         H         H         1.0       0.467798211283939   0.896197353058832   0.30853600132861586          1.0000   
         H         H         1.0       0.49918659350644445           0.9494084088325165 0.3304248355427496 1.0000   
         H         H         1.0       0.5908488143836982  0.8781904832994332  0.3613560524155645 1.0000   
         H         H         1.0       0.4962059455455176  0.8143352213643879  0.37063903157233835          1.0000   
         H         H         1.0       0.48369177058846813           0.7616690589551736 0.40109110644473367          1.0000   
         H         H         1.0       0.5034376645509927  0.6945732726812951  0.31894975972007356          1.0000   
         H         H         1.0       0.5164965955708937  0.7490652474647871  0.2939170247451656 1.0000   
         H         H         1.0       0.45250539363215597           0.7770815629071428 0.26597872635787434          1.0000   
         H         H         1.0       0.39359910457096847           0.7586828892173483 0.2707427360618985 1.0000   
         H         H         1.0       0.3757595766423149  0.8335232932521092  0.3461373052414674 1.0000   
         H         H         1.0       0.4422146385545632  0.8427013436865038  0.3465972506588078 1.0000   
         H         H         1.0       0.26506216731083937           0.8759961617965162 0.35242609000382324          1.0000   
         H         H         1.0       0.3155554801888767  0.8504022296755127  0.32142624273434334          1.0000   
         H         H         1.0       0.2825576241051539  0.7437725593592858  0.35210469167911496          1.0000   
         H         H         1.0       0.24611529328772225           0.7714266344922381 0.390664464530636  1.0000   
         H         H         1.0       0.3703212624215237  0.7523779821933378  0.36373291518113926          1.0000   
         H         H         1.0       0.4081057619839503  0.7004179663481706  0.3691043906818341 1.0000   
         H         H         1.0       0.36366188371045394           0.6558738117472898 0.2827464980063861 1.0000   
         H         H         1.0       0.32944594192065835           0.7070944038307174 0.27537232894543534          1.0000   
         H         H         1.0       0.3424410172661791  0.823204873668349   0.25442673722788234          1.0000   
         H         H         1.0       0.3219543158037957  0.8139328487337582  0.205502182279441  1.0000   
         H         H         1.0       0.24114365615974848           0.7357391203869446 0.23944322272230745          1.0000   
         H         H         1.0       0.26904173323129726           0.7456882660123813 0.2912294168246108 1.0000   
         C         C         1.0       0.23978386927835568           0.7616224080442302 0.9722106227562424 1.0000   
         C         C         1.0       0.239237633665041   0.7703847142722724  0.00285017235091245          1.0000   
         C         C         1.0       0.26729615254933825           0.761947456281808  0.024157852251313505         1.0000   
         C         C         1.0       0.2983633755677557  0.742371276711988   0.013962446559365294         1.0000   
         C         C         1.0       0.2989162616824237  0.7316096190510131  0.9830117433636181 1.0000   
         C         C         1.0       0.2694050676973176  0.7402399153992625  0.9626192922732565 1.0000   
         H         H         1.0       0.21413205989166892           0.7817182016188026 0.012934449743436938         1.0000   
         H         H         1.0       0.2646586127153714  0.7716157286484182  0.04867712820741832          1.0000   
         H         H         1.0       0.3253630245075913  0.7211309430490055  0.9754818223515541 1.0000   
         H         H         1.0       0.26623148877815794           0.7279836827893866 0.9409307982422498 1.0000   
         C         C         1.0       0.3262260380330778  0.6625231126851117  0.02446733383908528          1.0000   
         C         C         1.0       0.34441634899163026           0.6897584071482709 0.04041617147763521          1.0000   
         C         C         1.0       0.37397884474196946           0.680170009045368  0.0592532479398733 1.0000   
         C         C         1.0       0.38707864170137857           0.6446109079401421 0.06143539711977697          1.0000   
         C         C         1.0       0.37127539305269164           0.6173005530737844 0.04251540512633323          1.0000   
         C         C         1.0       0.34094150312548527           0.627823059078493  0.02363631493510021          1.0000   
         C         C         1.0       0.334299108615342   0.7324282916192975  0.0378525174174682 1.0000   
         C         C         1.0       0.3239598994802918  0.7402646962308562  0.07400412286401581          1.0000   
         C         C         1.0       0.3464913972076744  0.7602411414758268  0.09402823338809108          1.0000   
         C         C         1.0       0.34170967356388526           0.7573098818009011 0.12620902707481307          1.0000   
         C         C         1.0       0.3125737572755768  0.7386572177272156  0.13756735658513278          1.0000   
         C         C         1.0       0.2878633198755555  0.7218310241378219  0.11623088912650803          1.0000   
         C         C         1.0       0.2939325490057624  0.7223864343383984  0.08555111539562077          1.0000   
         C         C         1.0       0.39483279143624234           0.7342698657555804 0.005444544205569279         1.0000   
         C         C         1.0       0.4212842927684272  0.7509517496129202  0.9897021663399357 1.0000   
         C         C         1.0       0.4247759173234617  0.7880293951574493  0.9899733991788786 1.0000   
         C         C         1.0       0.4026263106444533  0.8098314321469197  0.008736127097513258         1.0000   
         C         C         1.0       0.3735818976339285  0.7922040410314191  0.02384683537483756          1.0000   
         C         C         1.0       0.3701374657323324  0.7526135800337109  0.023139945778932525         1.0000   
         C         C         1.0       0.457443424013234   0.8062658504081595  0.9709440067085164 1.0000   
         C         C         1.0       0.5366079144912228  0.8104939385014742  0.04849385254233218          1.0000   
         C         C         1.0       0.5321601728767094  0.7781570813456316  0.033006359445352906         1.0000   
         C         C         1.0       0.5078425589346403  0.7741590048521803  0.007977008278145847         1.0000   
         C         C         1.0       0.48885664301653126           0.8059347353358095 0.9963232029600864 1.0000   
         C         C         1.0       0.49166290240604127           0.8368182578199043 0.014167915765827654         1.0000   
         C         C         1.0       0.5171350877671166  0.8394336700535284  0.03914119374171254          1.0000   
         C         C         1.0       0.4504319827985959  0.8453420804859103  0.952853174075567  1.0000   
         C         C         1.0       0.41703789130076957           0.8513298524864638 0.9382647937714965 1.0000   
         C         C         1.0       0.41273221865959586           0.8790035452175106 0.9166262569208597 1.0000   
         C         C         1.0       0.4424746757236638  0.90021422300534    0.9087646551760776 1.0000   
         C         C         1.0       0.47569983513292285           0.8971056165225313 0.924748013364804  1.0000   
         C         C         1.0       0.4789444112447267  0.8703736937394794  0.9486405524980878 1.0000   
         C         C         1.0       0.5067187081560522  0.7795321380705985  0.9324364597697911 1.0000   
         C         C         1.0       0.5154336970332516  0.7636444152336632  0.9042952382778219 1.0000   
         C         C         1.0       0.4868901658191273  0.7481197306064212  0.8867748792919639 1.0000   
         C         C         1.0       0.4496703590479647  0.7514017659253188  0.8941530824961181 1.0000   
         C         C         1.0       0.44066968612242674           0.7686308236332423 0.9213921140750901 1.0000   
         C         C         1.0       0.4691620236937439  0.783525672971169   0.9401928671751061 1.0000   
         H         H         1.0       0.30351354997504687           0.6709883282266084 0.010767079999875806         1.0000   
         H         H         1.0       0.38785371750120606           0.7035684032879693 0.06822613071247163          1.0000   
         H         H         1.0       0.41202893393826184           0.6351248157757388 0.07407151151350932          1.0000   
         H         H         1.0       0.32960941270204697           0.6086768005714837 0.006644157018073749         1.0000   
         H         H         1.0       0.3702056290555907  0.7745494804510036  0.08808716354477975          1.0000   
         H         H         1.0       0.3651124758396969  0.7709249001840992  0.13973280049830894          1.0000   
         H         H         1.0       0.2663898305305055  0.7069338514129302  0.12778990018061442          1.0000   
         H         H         1.0       0.2775336893221377  0.7050934726328091  0.07009117557775446          1.0000   
         H         H         1.0       0.39314761325940933           0.7063176602011733 0.004413706348568969         1.0000   
         H         H         1.0       0.44118488119759364           0.7323483790277637 0.9796557707899914 1.0000   
         H         H         1.0       0.40379418146993346           0.8386724117121884 0.010678230899995533         1.0000   
         H         H         1.0       0.354637741263842   0.8098969318672431  0.03732443567303112          1.0000   
         H         H         1.0       0.5477303196197258  0.7563348896165065  0.037902311974430614         1.0000   
         H         H         1.0       0.5091050199386417  0.746832830200078   0.9952384618112934 1.0000   
         H         H         1.0       0.47049381593071365           0.8563389435388846 0.010013628504195182         1.0000   
         H         H         1.0       0.5156569190091114  0.8622102731596734  0.05573722929320302          1.0000   
         H         H         1.0       0.3936277249648962  0.8335242005044173  0.9420925933976094 1.0000   
         H         H         1.0       0.3851059766502184  0.8820750998768023  0.9056977666999293 1.0000   
         H         H         1.0       0.4997223924392048  0.9124932809164468  0.9175925333867004 1.0000   
         H         H         1.0       0.5055053865719218  0.867311903431202   0.9583705777412417 1.0000   
         H         H         1.0       0.5295123916374551  0.7903320754824129  0.9463208617850059 1.0000   
         H         H         1.0       0.5430021122248188  0.7626993694988179  0.8968988402332954 1.0000   
         H         H         1.0       0.42821071671007627           0.7402805966491398 0.8784822013289819 1.0000   
         H         H         1.0       0.41152743189927565           0.7710989349353354 0.9280779724448419 1.0000   
         C         C         1.0       0.7963387570378364  0.7188611700346208  0.22008982475685332          1.0000   
         C         C         1.0       0.7616043667446099  0.707191163675264   0.22923100382371717          1.0000   
         C         C         1.0       0.7463691839850285  0.7245786752330377  0.2538666661480458 1.0000   
         C         C         1.0       0.7632808158060052  0.7544296587453636  0.268280596919335  1.0000   
         C         C         1.0       0.7985400697676479  0.7662595573497093  0.2560571013321061 1.0000   
         C         C         1.0       0.8139017830473737  0.7476718007255433  0.2325703310845476 1.0000   
         H         H         1.0       0.7470638289319629  0.6834399388087469  0.2197983705638959 1.0000   
         H         H         1.0       0.7198478596804575  0.7147607561341979  0.2595607541859344 1.0000   
         H         H         1.0       0.8140548677575975  0.7888841961372864  0.264519379431914  1.0000   
         H         H         1.0       0.842359930102087   0.7525340068415098  0.22736929256614846          1.0000   
         C         C         1.0       0.8039796934832619  0.763781802820492   0.33031278593143404          1.0000   
         C         C         1.0       0.7719869987333107  0.7837985353684462  0.32543919731275045          1.0000   
         C         C         1.0       0.7631187640879995  0.8072689037844742  0.3485129482263744 1.0000   
         C         C         1.0       0.7844721080366486  0.8137479545801868  0.3743647103833798 1.0000   
         C         C         1.0       0.8155141378798689  0.7945615397080229  0.37864102416720874          1.0000   
         C         C         1.0       0.8267522221953747  0.7696853822553057  0.35767424163153877          1.0000   
         C         C         1.0       0.7446835256093481  0.7756226687433377  0.2952792862217194 1.0000   
         C         C         1.0       0.713877299090215   0.7521871254638882  0.31127379851287557          1.0000   
         C         C         1.0       0.6782278069302206  0.7662106288039146  0.31862534388468366          1.0000   
         C         C         1.0       0.6547580650367337  0.7465247696947337  0.3368691563057868 1.0000   
         C         C         1.0       0.6666622172444902  0.7156715871493317  0.3508868452364669 1.0000   
         C         C         1.0       0.6991157096881998  0.6995412484903188  0.34078442551038834          1.0000   
         C         C         1.0       0.7224379322663633  0.7177308464763195  0.3213253834847705 1.0000   
         C         C         1.0       0.7515644211375472  0.8450519398934504  0.2814681830141685 1.0000   
         C         C         1.0       0.7392743740641428  0.8771597809092606  0.2694603867057505 1.0000   
         C         C         1.0       0.707913954764108   0.8764089198482534  0.24933962107469804          1.0000   
         C         C         1.0       0.6879676749616664  0.8450402252284487  0.24524904574990866          1.0000   
         C         C         1.0       0.7008736151315177  0.8131930799544929  0.25967313317944973          1.0000   
         C         C         1.0       0.7321922727266821  0.8132676100010899  0.2783191407419943 1.0000   
         C         C         1.0       0.7032333615104983  0.911085281174532   0.2276744422484769 1.0000   
         C         C         1.0       0.7006402371805146  0.016593512657400833         0.27363983102648887          1.0000   
         C         C         1.0       0.7045757684429769  0.014901781373746203         0.2434894963631099 1.0000   
         C         C         1.0       0.7040479379679447  0.9800902664051192  0.22880386936011715          1.0000   
         C         C         1.0       0.701242329118526   0.9487859055529155  0.24501465615784518          1.0000   
         C         C         1.0       0.693572409370428   0.9525438847759036  0.2754025165677565 1.0000   
         C         C         1.0       0.6936057508608293  0.9860945518515671  0.29069280607450715          1.0000   
         C         C         1.0       0.6625613675259264  0.9096077108258033  0.21091329196342493          1.0000   
         C         C         1.0       0.6575481097576554  0.9091824729206501  0.17917891074771522          1.0000   
         C         C         1.0       0.6215291490623929  0.9041889304005457  0.16608228469407646          1.0000   
         C         C         1.0       0.5924250575886756  0.8967508647174528  0.18593300294512644          1.0000   
         C         C         1.0       0.5967870478811733  0.9004475713554779  0.21756183412026964          1.0000   
         C         C         1.0       0.6315537072073198  0.9092469216528467  0.2291203012803123 1.0000   
         C         C         1.0       0.7707938983637389  0.925908455345373   0.20992194792995877          1.0000   
         C         C         1.0       0.799814874758528   0.9269739514873954  0.18910635916724258          1.0000   
         C         C         1.0       0.7960271231852835  0.9050955144185295  0.16214132235407022          1.0000   
         C         C         1.0       0.7676169714840483  0.8798509716325144  0.15958840383326062          1.0000   
         C         C         1.0       0.7387403491712985  0.8813081136708797  0.18017207680976532          1.0000   
         C         C         1.0       0.7386638689340768  0.9066805945901706  0.20451445995400386          1.0000   
         H         H         1.0       0.8113318406326684  0.7429924841704388  0.31354868791619306          1.0000   
         H         H         1.0       0.7391408835233256  0.8266744115452926  0.34673091776729714          1.0000   
         H         H         1.0       0.7742969635102818  0.8339260377874401  0.3889078420560268 1.0000   
         H         H         1.0       0.8523797851548216  0.755126870543372   0.3609294700074926 1.0000   
         H         H         1.0       0.6720412482686419  0.7940563934841586  0.3125524909085413 1.0000   
         H         H         1.0       0.6278915287518692  0.7589232235777925  0.3412315623662112 1.0000   
         H         H         1.0       0.7103540882405394  0.6742467096913639  0.35184443642892405          1.0000   
         H         H         1.0       0.7484101743609969  0.7059623815910415  0.3158048109030217 1.0000   
         H         H         1.0       0.7781474592255455  0.84409729928567    0.2924182121466445 1.0000   
         H         H         1.0       0.754664152355683   0.9013815559420824  0.27400225023038366          1.0000   
         H         H         1.0       0.6613908433384279  0.8453913193777681  0.2302234451291956 1.0000   
         H         H         1.0       0.6838201223815642  0.7880082520518762  0.25885479844119463          1.0000   
         H         H         1.0       0.717047894167825   0.03781487949786033           0.2322309083871697 1.0000   
         H         H         1.0       0.7103685739082567  0.9763541974475073  0.20450735717363416          1.0000   
         H         H         1.0       0.6866254451128079  0.9289064814882952  0.29002688664181325          1.0000   
         H         H         1.0       0.6839014228177227  0.9855048220994803  0.31374988155169514          1.0000   
         H         H         1.0       0.679156565743345   0.9171349158211393  0.16499751844627222          1.0000   
         H         H         1.0       0.6176723154981826  0.9053655196840282  0.1413615072811887 1.0000   
         H         H         1.0       0.5729461175803622  0.898681296800821   0.23283284050030056          1.0000   
         H         H         1.0       0.6342692421478984  0.9067356355585793  0.25385231828253946          1.0000   
         H         H         1.0       0.7740456792079538  0.9424553315538275  0.23135586024115073          1.0000   
         H         H         1.0       0.822746273969581   0.946087541131469   0.19340193454285887          1.0000   
         H         H         1.0       0.7608041806977344  0.8644432080079005  0.13958042452604433          1.0000   
         H         H         1.0       0.7147701311160707  0.8658060520120177  0.17304796768739966          1.0000   
         C         C         1.0       0.6772575309087838  0.004493402696814863         0.9530725070192801 1.0000   
         C         C         1.0       0.7045239939275036  0.010502730740229893         0.9772729905721604 1.0000   
         C         C         1.0       0.7074918616714891  0.9831752389722834  0.9997808400614283 1.0000   
         C         C         1.0       0.6843055667182266  0.9544953934266031  0.0011451739138883532        1.0000   
         C         C         1.0       0.6568513573897644  0.9523788338913344  0.978804846505883  1.0000   
         C         C         1.0       0.6546349430194429  0.9750678284219579  0.9533688942690054 1.0000   
         H         H         1.0       0.7291402265468918  0.028420472114017548         0.9730425746774798 1.0000   
         H         H         1.0       0.7347564206010526  0.98162871681611    0.009982354727825049         1.0000   
         H         H         1.0       0.6340407115274275  0.9326648619700934  0.9799301367762022 1.0000   
         H         H         1.0       0.6307808923246137  0.9723435936839343  0.9371475828822478 1.0000   
         C         C         1.0       0.6259835778116329  0.9155085014038566  0.04745521169233702          1.0000   
         C         C         1.0       0.659693586837432   0.8984660922649668  0.04003770604031698          1.0000   
         C         C         1.0       0.6636098915536813  0.8621386990982641  0.04883049029607278          1.0000   
         C         C         1.0       0.6388548014836748  0.8465967816705875  0.06747413036145411          1.0000   
         C         C         1.0       0.605970473548219   0.8626019043827587  0.07635024323327566          1.0000   
         C         C         1.0       0.6002913966132031  0.8984701338029193  0.06672841094588455          1.0000   
         C         C         1.0       0.6931179376217107  0.9193794229666289  0.023190820972269766         1.0000   
         C         C         1.0       0.7234484539985246  0.9222199214824975  0.053380884380404225         1.0000   
         C         C         1.0       0.7465931287601368  0.8924245901493121  0.06173743113511221          1.0000   
         C         C         1.0       0.7767590870684087  0.8989268778415633  0.08175133822264091          1.0000   
         C         C         1.0       0.7832150587408465  0.9326330691785635  0.09321416786527781          1.0000   
         C         C         1.0       0.7564677673549141  0.9594730508282242  0.09026599164897298          1.0000   
         C         C         1.0       0.7265485268316474  0.954829377353147   0.07007371282896413          1.0000   
         C         C         1.0       0.6912392039993217  0.8650514882833253  0.9829781338512894 1.0000   
         C         C         1.0       0.7111451110756168  0.8358754112423785  0.9726605745213543 1.0000   
         C         C         1.0       0.7492923778425468  0.8357278604097169  0.9697117569551849 1.0000   
         C         C         1.0       0.7685858615216811  0.8692549360631534  0.976127080406327  1.0000   
         C         C         1.0       0.7495201058893719  0.8970088515072521  0.9906277999302199 1.0000   
         C         C         1.0       0.7104252310727683  0.8948433821539782  0.9954447918636842 1.0000   
         C         C         1.0       0.7713032091486766  0.7982560368721185  0.9656674174909151 1.0000   
         C         C         1.0       0.7885748985215312  0.7802768419059388  0.06700144230531802          1.0000   
         C         C         1.0       0.7546176960312865  0.7726717760026164  0.05314873866605474          1.0000   
         C         C         1.0       0.7505303856335288  0.7776411451242219  0.022101837537288338         1.0000   
         C         C         1.0       0.7784492526214007  0.7923822081530012  0.0035234631255334214        1.0000   
         C         C         1.0       0.8136258727079986  0.7991953379146053  0.018497961459184475         1.0000   
         C         C         1.0       0.8173993259864414  0.7936306468418126  0.04975363387136711          1.0000   
         C         C         1.0       0.8087458336638471  0.8011051019352551  0.9469677144407843 1.0000   
         C         C         1.0       0.8180800424195809  0.8274721546692506  0.9250458576766984 1.0000   
         C         C         1.0       0.8543769719422836  0.8308820135864007  0.9171454136224341 1.0000   
         C         C         1.0       0.8802199274608972  0.8053295161785897  0.9271938866559982 1.0000   
         C         C         1.0       0.869726622830706   0.777101257382867   0.9455905548517521 1.0000   
         C         C         1.0       0.834354254835419   0.7725705510003287  0.9531464234809639 1.0000   
         C         C         1.0       0.744376451160101   0.7354376811861392  0.9573503772436013 1.0000   
         C         C         1.0       0.7167917092577927  0.7128856927023466  0.9466152927161454 1.0000   
         C         C         1.0       0.6996873639694462  0.7222298447283291  0.9196174077684639 1.0000   
         C         C         1.0       0.7090673333832002  0.753299437447632   0.9038341634801418 1.0000   
         C         C         1.0       0.732830215149308   0.7781501083789885  0.9172846461772406 1.0000   
         C         C         1.0       0.7481302876432324  0.769615824258233   0.9476574014778667 1.0000   
         H         H         1.0       0.6169220280932342  0.9428307681971165  0.03918348032767138          1.0000   
         H         H         1.0       0.6881190320841525  0.8447692340584784  0.04616777341522038          1.0000   
         H         H         1.0       0.6437031516245248  0.8175994335992475  0.07172072973736165          1.0000   
         H         H         1.0       0.5759029523661195  0.9148431626550125  0.07393359330251825          1.0000   
         H         H         1.0       0.7447371510775048  0.8644262137535723  0.0535001066656553 1.0000   
         H         H         1.0       0.7962343038720636  0.8763873063531574  0.08471613423202018          1.0000   
         H         H         1.0       0.7601642741326973  0.983984046883882   0.10486889210465165          1.0000   
         H         H         1.0       0.7042894579621961  0.9757994947656697  0.06782015913212014          1.0000   
         H         H         1.0       0.6628848434749195  0.8600081696828238  0.981944885220443  1.0000   
         H         H         1.0       0.6942781078139826  0.810524776673707   0.9666976107354025 1.0000   
         H         H         1.0       0.7972924464737393  0.872791784912309   0.9745467337347369 1.0000   
         H         H         1.0       0.7638792927426346  0.9189998559549019  0.0019002447564111513        1.0000   
         H         H         1.0       0.732283673672141   0.761455025923411   0.06686832326550629          1.0000   
         H         H         1.0       0.7223479705523392  0.7729007299474128  0.014019730516774631         1.0000   
         H         H         1.0       0.8333445616226954  0.8179758996336284  0.009279247905719767         1.0000   
         H         H         1.0       0.8440052398752346  0.8029785157729956  0.0584758423094629 1.0000   
         H         H         1.0       0.7977914379866576  0.846736270944399   0.9165310242256356 1.0000   
         H         H         1.0       0.8624719204762613  0.8496537206026261  0.9007187081558228 1.0000   
         H         H         1.0       0.8875324330335446  0.754852576732135   0.9531217008045304 1.0000   
         H         H         1.0       0.8280578932722644  0.7501897780011795  0.967944014834803  1.0000   
         H         H         1.0       0.7574541723430191  0.7239217007375156  0.9778306240447348 1.0000   
         H         H         1.0       0.7114079760329373  0.6872858475982704  0.9567357376376711 1.0000   
         H         H         1.0       0.6963069856586659  0.7566079442531932  0.8802969197952039 1.0000   
         H         H         1.0       0.7391902306797214  0.8033971017080639  0.907222517239061  1.0000   
         C         C         1.0       0.637102565028864   0.5414990329638072  0.2216892547742761 1.0000   
         C         C         1.0       0.6351099187370088  0.5657367201664013  0.24501838758224678          1.0000   
         C         C         1.0       0.6428022325938015  0.5545142425586048  0.2754189081541353 1.0000   
         C         C         1.0       0.6572943377401023  0.520643062830161   0.28103213517479037          1.0000   
         C         C         1.0       0.65728456261832    0.4961584237620369  0.25632441263787287          1.0000   
         C         C         1.0       0.6501435680848758  0.5069589559578733  0.22615281372492063          1.0000   
         H         H         1.0       0.6275376068781904  0.5929208646583538  0.24002506640037005          1.0000   
         H         H         1.0       0.6454485970263988  0.5762799918271984  0.2929355266832912 1.0000   
         H         H         1.0       0.669008672642707   0.46924257788644186           0.2545440982044182 1.0000   
         H         H         1.0       0.6522186478360283  0.4855141038686827  0.20721300544474958          1.0000   
         C         C         1.0       0.6345043246881457  0.45187078307604744           0.314611324345741  1.0000   
         C         C         1.0       0.6697406394555979  0.46656731250775185           0.3212020385292424 1.0000   
         C         C         1.0       0.6955742565035092  0.4434874554415266  0.3357434810622317 1.0000   
         C         C         1.0       0.6864535825869448  0.408636701280761   0.34470155189560975          1.0000   
         C         C         1.0       0.6514001648929983  0.3933888394862167  0.33795877351386583          1.0000   
         C         C         1.0       0.6247927174271545  0.4168367358754718  0.32416627014161337          1.0000   
         C         C         1.0       0.679144536032744   0.5082301711027972  0.3115478966305613 1.0000   
         C         C         1.0       0.6677556192499959  0.5285467983650634  0.3426650980160541 1.0000   
         C         C         1.0       0.6943032277655471  0.5338393256735388  0.367247742362849  1.0000   
         C         C         1.0       0.688406832862808   0.550493400006407   0.3937882271953932 1.0000   
         C         C         1.0       0.6536493007934702  0.5652897053697691  0.3974578877881332 1.0000   
         C         C         1.0       0.6250213943517359  0.5597981473872434  0.37595986428874506          1.0000   
         C         C         1.0       0.6314980674686776  0.540452688488451   0.3494202123058645 1.0000   
         C         C         1.0       0.7418719197391072  0.4945954991303403  0.28704403898488884          1.0000   
         C         C         1.0       0.7771743504005122  0.5049706112240787  0.27869925403488915          1.0000   
         C         C         1.0       0.788276026179054   0.5418918083970927  0.2799191917877998 1.0000   
         C         C         1.0       0.7629445115427861  0.5675072701789825  0.2895690705569764 1.0000   
         C         C         1.0       0.7310772792470771  0.5561347974953239  0.30232632740557747          1.0000   
         C         C         1.0       0.7185550872373673  0.5197796053603209  0.2999331574251856 1.0000   
         C         C         1.0       0.8303861868439887  0.5543811210981572  0.2759827270653882 1.0000   
         C         C         1.0       0.8793795457662427  0.5607757040742644  0.367585038542465  1.0000   
         C         C         1.0       0.8725639806522792  0.5280442700337054  0.35303333650055063          1.0000   
         C         C         1.0       0.8526842986378845  0.5259449822937121  0.3251939331517884 1.0000   
         C         C         1.0       0.8424492884585346  0.558453107215298   0.31098088363499815          1.0000   
         C         C         1.0       0.8446871810542297  0.5898758219881949  0.3286090683708126 1.0000   
         C         C         1.0       0.8639111941943586  0.5914936864978264  0.35696813329351534          1.0000   
         C         C         1.0       0.8308972004407531  0.5897735469920891  0.2545181593484828 1.0000   
         C         C         1.0       0.8070546757206813  0.5926358581980807  0.22863938766266326          1.0000   
         C         C         1.0       0.814005148804741   0.6207069456309438  0.20804774802347445          1.0000   
         C         C         1.0       0.8432934125221727  0.6441608054500699  0.21347223851069277          1.0000   
         C         C         1.0       0.8627245382403741  0.6446338829326376  0.24097868413973547          1.0000   
         C         C         1.0       0.8582368290053787  0.615649118686173   0.2600130868004046 1.0000   
         C         C         1.0       0.8959151606686049  0.5349193805804865  0.26114291235399284          1.0000   
         C         C         1.0       0.9215477378578485  0.5214661122560615  0.24102820912745207          1.0000   
         C         C         1.0       0.9087560644263079  0.5049402835230868  0.21412992930501124          1.0000   
         C         C         1.0       0.871837736202637   0.49613091284517585           0.2098446190440815 1.0000   
         C         C         1.0       0.8455871265584156  0.5099828345384861  0.2299034126151321 1.0000   
         C         C         1.0       0.8583310783310462  0.529633528381605   0.25690968047944357          1.0000   
         H         H         1.0       0.6115597764104264  0.467123573743301   0.3051273397921195 1.0000   
         H         H         1.0       0.7225978471707322  0.4540960069791631  0.33989131542175444          1.0000   
         H         H         1.0       0.7090301779484333  0.39254341283104505           0.3531226000639518 1.0000   
         H         H         1.0       0.5960233633141874  0.40860470395354537           0.3240902019676602 1.0000   
         H         H         1.0       0.7212332803364893  0.5250087621164915  0.36440905360471376          1.0000   
         H         H         1.0       0.7099225801588888  0.5541599152689878  0.40991416759814003          1.0000   
         H         H         1.0       0.598199744547374   0.5736202223234974  0.3777276195241704 1.0000   
         H         H         1.0       0.6089019391609346  0.5400318429755671  0.3311903191569522 1.0000   
         H         H         1.0       0.7363959260138824  0.4665493499330646  0.28659941977530323          1.0000   
         H         H         1.0       0.7948516548167757  0.48239764674900115           0.2727826716532811 1.0000   
         H         H         1.0       0.7689478219687544  0.5969190321909221  0.2933003885262181 1.0000   
         H         H         1.0       0.7149658101910925  0.575337518038091   0.31392550428741234          1.0000   
         H         H         1.0       0.8888922232043697  0.5035221652601695  0.3611335766229068 1.0000   
         H         H         1.0       0.8522285408980157  0.5002140428802531  0.3144812065715474 1.0000   
         H         H         1.0       0.8332926729546465  0.6143553212944566  0.31743654051007714          1.0000   
         H         H         1.0       0.8698974483027191  0.6170166101622342  0.367689712222466  1.0000   
         H         H         1.0       0.7827642079877691  0.5754978255715643  0.22580392590780923          1.0000   
         H         H         1.0       0.8002268211101811  0.6225588633488605  0.18587752952499909          1.0000   
         H         H         1.0       0.8854513726302694  0.6644129151732295  0.24843361386468038          1.0000   
         H         H         1.0       0.8779005199751987  0.6140555225439476  0.2795626798919899 1.0000   
         H         H         1.0       0.9065346467234467  0.5538310374487785  0.27809558915320015          1.0000   
         H         H         1.0       0.9497941792548344  0.5291596498531153  0.24478348903807454          1.0000   
         H         H         1.0       0.8619851765650625  0.4815193057262674  0.18954126949637956          1.0000   
         H         H         1.0       0.8150166319549377  0.5089508807051639  0.2246973877420388 1.0000   
         C         C         1.0       0.8722135884684119  0.5699869197252091  0.9889579482743834 1.0000   
         C         C         1.0       0.8692659654098047  0.5429090551937956  0.010143111325840115         1.0000   
         C         C         1.0       0.8554420791119872  0.5494947488000301  0.03826026321470777          1.0000   
         C         C         1.0       0.8446273213218447  0.5852540016453437  0.04569339038524989          1.0000   
         C         C         1.0       0.8408355769853977  0.6104784250597309  0.022791347456702082         1.0000   
         C         C         1.0       0.854744742863755   0.6035021893696317  0.9940693811124341 1.0000   
         H         H         1.0       0.874994416652387   0.5170500783679823  0.0009782821893338234        1.0000   
         H         H         1.0       0.8578490560618401  0.5293479296662178  0.05664996218331364          1.0000   
         H         H         1.0       0.8265536818756205  0.6354860478967801  0.02523913020352464          1.0000   
         H         H         1.0       0.855948215690799   0.6245328303276472  0.9763393477343265 1.0000   
         C         C         1.0       0.8616873661279241  0.6630388163088701  0.08070874974115494          1.0000   
         C         C         1.0       0.8341876959719422  0.6388326889777196  0.08994052267174046          1.0000   
         C         C         1.0       0.8062151549253301  0.653282489369163   0.10674586374076633          1.0000   
         C         C         1.0       0.800922003374377   0.6887264778762893  0.11284988781648941          1.0000   
         C         C         1.0       0.8288922816309847  0.711821626566674   0.10229267220165927          1.0000   
         C         C         1.0       0.8597380223078607  0.6999498724374865  0.08676762710598251          1.0000   
         C         C         1.0       0.8332210809010614  0.5959491134902124  0.08092087721008667          1.0000   
         C         C         1.0       0.8629902325453518  0.5804081519820075  0.1063752534105411 1.0000   
         C         C         1.0       0.8525571882626777  0.5748609507284946  0.13730568352131023          1.0000   
         C         C         1.0       0.8786708366618161  0.5630315266449111  0.15805495830007255          1.0000   
         C         C         1.0       0.9142794663310662  0.5530306530344835  0.14961073710154793          1.0000   
         C         C         1.0       0.9249295732831115  0.5613603984059148  0.12020459068206278          1.0000   
         C         C         1.0       0.8998608351450522  0.5755756365000184  0.09865856476830093          1.0000   
         C         C         1.0       0.7627912974739423  0.5904943727395037  0.06355495031300329          1.0000   
         C         C         1.0       0.7344625663937875  0.5696650746023103  0.052903141305362  1.0000   
         C         C         1.0       0.7357422871657548  0.5312679330764755  0.05384830868774304          1.0000   
         C         C         1.0       0.7599108802194366  0.5161155919961068  0.0756212255363995 1.0000   
         C         C         1.0       0.7881852307077791  0.5386721222819307  0.08772959148448911          1.0000   
         C         C         1.0       0.7933676594680268  0.5752335495621791  0.07944183143741701          1.0000   
         C         C         1.0       0.7155969292503421  0.5075725531423763  0.02711591042177086          1.0000   
         C         C         1.0       0.6099636257483656  0.4999013765028396  0.07304058117341361          1.0000   
         C         C         1.0       0.6171027028708305  0.5304688264037561  0.05649025673160857          1.0000   
         C         C         1.0       0.6496081119787004  0.5330076052159     0.04177250102081942          1.0000   
         C         C         1.0       0.6778804702605216  0.5053154878373809  0.04361972120738167          1.0000   
         C         C         1.0       0.6718471181409688  0.4762875516318578  0.06179442699962179          1.0000   
         C         C         1.0       0.636898949472243   0.47408295820288643           0.07786638302888682          1.0000   
         C         C         1.0       0.7332608423156641  0.471179816726518   0.016916303866574944         1.0000   
         C         C         1.0       0.7714804484832835  0.4645895262389169  0.0163631751634028 1.0000   
         C         C         1.0       0.7848291286036256  0.4333739095036816  0.002152117506626361         1.0000   
         C         C         1.0       0.7636731388774253  0.40993655645726595           0.9879185290899662 1.0000   
         C         C         1.0       0.725784799427946   0.41486705360162335           0.9882605902661554 1.0000   
         C         C         1.0       0.7101039376740126  0.444037224267527   0.0025536861129031863        1.0000   
         C         C         1.0       0.6899443424018504  0.5276847521288618  0.9740072188790098 1.0000   
         C         C         1.0       0.6939926240003059  0.5450561841305516  0.9457696982320587 1.0000   
         C         C         1.0       0.7268073772028945  0.5597415419192752  0.9375102235615869 1.0000   
         C         C         1.0       0.758158730785464   0.5536764034077034  0.955873453837997  1.0000   
         C         C         1.0       0.7537851775914884  0.541771359418962   0.9856706454790392 1.0000   
         C         C         1.0       0.7183539851172711  0.5282898791782281  0.995280966306289  1.0000   
         H         H         1.0       0.8876214716354659  0.6530172643544804  0.07191301879841405          1.0000   
         H         H         1.0       0.7826081113646485  0.6364800658209001  0.11355241578526187          1.0000   
         H         H         1.0       0.7788056807178727  0.7010558138001513  0.1250611679036513 1.0000   
         H         H         1.0       0.8812647309164028  0.7194014736245385  0.08087291345265868          1.0000   
         H         H         1.0       0.823360150560662   0.5832367008550762  0.14512766013895773          1.0000   
         H         H         1.0       0.8680266277309745  0.5644093965051018  0.18296885776200167          1.0000   
         H         H         1.0       0.9542209137571339  0.5574234731248329  0.11446039189407631          1.0000   
         H         H         1.0       0.9116440492952854  0.5861227053935373  0.07886301302406151          1.0000   
         H         H         1.0       0.7636229162686885  0.6197532387114988  0.05887724979503872          1.0000   
         H         H         1.0       0.7130619329471113  0.5825621563904592  0.03833700726198175          1.0000   
         H         H         1.0       0.7622130693703729  0.4873932687505617  0.07853091054204131          1.0000   
         H         H         1.0       0.8091973256864926  0.5241897007833213  0.1010494143442342 1.0000   
         H         H         1.0       0.5977712177596795  0.5512673612857149  0.05486219013628735          1.0000   
         H         H         1.0       0.6516143492577903  0.5555280363505731  0.027768334676005813         1.0000   
         H         H         1.0       0.6910101308863519  0.45255420660419265           0.0626829406025744 1.0000   
         H         H         1.0       0.6346461215194649  0.4526457890452522  0.09315581788650218          1.0000   
         H         H         1.0       0.7918205304851569  0.4834764135699252  0.024903962105649713         1.0000   
         H         H         1.0       0.8163473203504031  0.4290163300540642  0.0013648801526047194        1.0000   
         H         H         1.0       0.7101946488507503  0.39241721194758267           0.9760652512986576 1.0000   
         H         H         1.0       0.6807651264489333  0.448114125375032   0.9990898731633113 1.0000   
         H         H         1.0       0.6626338008754363  0.5132909063337695  0.9766372263158748 1.0000   
         H         H         1.0       0.6694732674413453  0.5488710197043631  0.9305381736180042 1.0000   
         H         H         1.0       0.7861984159314925  0.5629896974915726  0.9510136506064912 1.0000   
         H         H         1.0       0.7799027785591055  0.539757367765894   0.001424202357377613         1.0000   
         C         C         1.0       0.4464877613222296  0.5849043567833561  0.3092258950303146 1.0000   
         C         C         1.0       0.48328939360954526           0.5777992618461634 0.3167274231779578 1.0000   
         C         C         1.0       0.49304130924730605           0.5427062484492787 0.32698466857370584          1.0000   
         C         C         1.0       0.4662855393388561  0.51611194014132    0.32982118182735465          1.0000   
         C         C         1.0       0.4307838879915477  0.5228911449248305  0.3180032631473055 1.0000   
         C         C         1.0       0.41968871574195754           0.557907487133408  0.3089387871094498 1.0000   
         H         H         1.0       0.5052295875929187  0.5979185693794686  0.31665533124582074          1.0000   
         H         H         1.0       0.5225902692383608  0.5375845361622565  0.33222719381494986          1.0000   
         H         H         1.0       0.41122019676227783           0.5009871761605331 0.31766619794412126          1.0000   
         H         H         1.0       0.38984463989619667           0.5627834433049037 0.30185831765377336          1.0000   
         C         C         1.0       0.43021783497379423           0.49319237702249064          0.38767212302672943          1.0000   
         C         C         1.0       0.44569709260236834           0.4663379588477651 0.36903682016162254          1.0000   
         C         C         1.0       0.43716030197799893           0.4313052179998975 0.3755227548779171 1.0000   
         C         C         1.0       0.41683194553545566           0.42209066529343486          0.40018957606960276          1.0000   
         C         C         1.0       0.40451519178827716           0.4498278352847587 0.4213817121591349 1.0000   
         C         C         1.0       0.4070675250511358  0.48620612482015446           0.41162635847369583          1.0000   
         C         C         1.0       0.4761197742326439  0.47763200520345006           0.3443763125166056 1.0000   
         C         C         1.0       0.5128791776565194  0.4722363838854723  0.3657432619167984 1.0000   
         C         C         1.0       0.5309915237942647  0.4379815921558012  0.36847951656133415          1.0000   
         C         C         1.0       0.5600662976545043  0.4329674647874219  0.386942080500909  1.0000   
         C         C         1.0       0.5720440101327167  0.46160408856267693           0.4068529253907689 1.0000   
         C         C         1.0       0.5556377824039843  0.4952548826332159  0.40521520087086105          1.0000   
         C         C         1.0       0.5248173930900338  0.5001498138804574  0.38638793872463645          1.0000   
         C         C         1.0       0.450147301973911   0.43847925826112316           0.29517468804885244          1.0000   
         C         C         1.0       0.45201148067763985           0.4289420276133129 0.2641315968699117 1.0000   
         C         C         1.0       0.4860791179417547  0.43450870032729044           0.24850501496198407          1.0000   
         C         C         1.0       0.5177341851102193  0.4440748633500254  0.26629517395190944          1.0000   
         C         C         1.0       0.5132997301221711  0.4573921680352635  0.2962269458403004 1.0000   
         C         C         1.0       0.47997062315931777           0.4558008668195892 0.31196080482566335          1.0000   
         C         C         1.0       0.4931106665150325  0.4308051209361093  0.21271203982762632          1.0000   
         C         C         1.0       0.524824091151679   0.31822587561073284           0.20154145607928278          1.0000   
         C         C         1.0       0.4879356096533462  0.3288237957163623  0.20324913925816188          1.0000   
         C         C         1.0       0.4791738607010624  0.3640813215406162  0.20883379657190787          1.0000   
         C         C         1.0       0.5074536306336014  0.3906168499133806  0.20983113928991717          1.0000   
         C         C         1.0       0.5438879012578197  0.37906789653914197           0.2138178591398757 1.0000   
         C         C         1.0       0.5526134112994026  0.34372532373117126           0.20812666580976294          1.0000   
         C         C         1.0       0.5219309569709466  0.4608419869516039  0.20278481755225827          1.0000   
         C         C         1.0       0.5171534668629085  0.49758583116467014           0.21362220995492806          1.0000   
         C         C         1.0       0.5388304198844818  0.525000594063905   0.20559352114595936          1.0000   
         C         C         1.0       0.5659693323261534  0.521060608139765   0.184298913787472  1.0000   
         C         C         1.0       0.5729388387511049  0.48666328402374015           0.17378320499890765          1.0000   
         C         C         1.0       0.5511941138972809  0.45679313465004    0.18274719709848988          1.0000   
         C         C         1.0       0.4621927000332281  0.42230793878975015           0.15914948853560534          1.0000   
         C         C         1.0       0.43939441349750546           0.4324000305406525 0.13417953379834935          1.0000   
         C         C         1.0       0.4120352515156821  0.457994268047921   0.1394834953885298 1.0000   
         C         C         1.0       0.4094176898196795  0.4739408667758837  0.16865142086449542          1.0000   
         C         C         1.0       0.4346655253069902  0.4657766457923723  0.19209838574108026          1.0000   
         C         C         1.0       0.4605353948918145  0.43938081686408703           0.18812466793679586          1.0000   
         H         H         1.0       0.4350778742927317  0.523912996497352   0.3850802583691972 1.0000   
         H         H         1.0       0.44572203152426415           0.41001310212019165          0.36060845772360944          1.0000   
         H         H         1.0       0.4100566365937139  0.39570778525713757           0.4047748590806492 1.0000   
         H         H         1.0       0.40008885802078387           0.5095107298502471 0.42601213975060576          1.0000   
         H         H         1.0       0.5228627020859935  0.41798687367425624           0.35119969253868183          1.0000   
         H         H         1.0       0.5728799249000059  0.4064640320800159  0.38744461315084666          1.0000   
         H         H         1.0       0.5633517961593087  0.518944757136076   0.4199181092532123 1.0000   
         H         H         1.0       0.5087866870175507  0.5264923964673422  0.38734620914699364          1.0000   
         H         H         1.0       0.4220644554458804  0.4370394486297931  0.3039384337239164 1.0000   
         H         H         1.0       0.4285023334267996  0.4209658519065342  0.24806201770387099          1.0000   
         H         H         1.0       0.5471567019080916  0.44140229401530034           0.25874646076927327          1.0000   
         H         H         1.0       0.5374806340099361  0.4702968510926375  0.3075974894742965 1.0000   
         H         H         1.0       0.4632273922372561  0.3107142398783723  0.20143250776791086          1.0000   
         H         H         1.0       0.45050672522287244           0.373301767690201  0.21123388382548777          1.0000   
         H         H         1.0       0.5658341698851548  0.3980210647472408  0.2191642070697457 1.0000   
         H         H         1.0       0.5817963714153379  0.33552154708970594           0.20704486242957396          1.0000   
         H         H         1.0       0.49469845317399647           0.5085443502848223 0.22795620411584394          1.0000   
         H         H         1.0       0.5358056258994174  0.5495814178015949  0.2190756298951283 1.0000   
         H         H         1.0       0.5980852985765035  0.48274979863632483           0.1596773713338845 1.0000   
         H         H         1.0       0.5574231338688129  0.4302197767986974  0.17487494453361102          1.0000   
         H         H         1.0       0.486213552579211   0.4055679011178273  0.1528190832496684 1.0000   
         H         H         1.0       0.4471284841602991  0.4264300393879273  0.11079168733804055          1.0000   
         H         H         1.0       0.3900115194131786  0.4959455180610419  0.17303281072145774          1.0000   
         H         H         1.0       0.4341252242351506  0.4806636868765621  0.21357646180669565          1.0000   
         C         C         1.0       0.47610242689954435           0.28532640020605793          0.9730317057931301 1.0000   
         C         C         1.0       0.4402031999660028  0.29906899814750404           0.9743799746609698 1.0000   
         C         C         1.0       0.4354334573570061  0.33576214030629037           0.9783111797974325 1.0000   
         C         C         1.0       0.4654929759582478  0.3596864527623425  0.9818528969509827 1.0000   
         C         C         1.0       0.5010224603459051  0.3454281177846158  0.977268694461002  1.0000   
         C         C         1.0       0.5057639526849169  0.30875672705576257           0.9720590641929252 1.0000   
         H         H         1.0       0.4158331473443625  0.2823266035044437  0.97957312272538   1.0000   
         H         H         1.0       0.40647128416623296           0.3465880424313466 0.9785393599500033 1.0000   
         H         H         1.0       0.5257164561582062  0.36368477446364206           0.9786404604073018 1.0000   
         H         H         1.0       0.533160522766645   0.2984075509369085  0.9688322687943399 1.0000   
         C         C         1.0       0.5098293797798213  0.3924495063626155  0.03588960207253189          1.0000   
         C         C         1.0       0.4886626984954204  0.4153219411401135  0.013916322901438516         1.0000   
         C         C         1.0       0.49181509792452904           0.4531333943197106 0.018590387579624723         1.0000   
         C         C         1.0       0.5133462317573422  0.4684986902465663  0.04185872084280762          1.0000   
         C         C         1.0       0.5319164793239703  0.4456824779876641  0.06236538891241028          1.0000   
         C         C         1.0       0.530503504036427   0.40876153885128336           0.058667564332696154         1.0000   
         C         C         1.0       0.45828527073081093           0.39928355579195973          0.9892215626855565 1.0000   
         C         C         1.0       0.4228498071387205  0.4064462850962905  0.010150147435773249         1.0000   
         C         C         1.0       0.40287363350733607           0.4387209612790288 0.009883276425115328         1.0000   
         C         C         1.0       0.38339484343854674           0.4511138816954969 0.036259646456673345         1.0000   
         C         C         1.0       0.3843419660912598  0.43116754091727544           0.06273446594776311          1.0000   
         C         C         1.0       0.40444424421004505           0.3983350418172315 0.06277663207227091          1.0000   
         C         C         1.0       0.42079318394437176           0.3863617619717975 0.036935401155343106         1.0000   
         C         C         1.0       0.48905940589312724           0.4337484625728999 0.9458808049997913 1.0000   
         C         C         1.0       0.4860716696843003  0.4612474556242726  0.9253496989465694 1.0000   
         C         C         1.0       0.45272922136877114           0.4689777514375541 0.9102106995493447 1.0000   
         C         C         1.0       0.4232173666266777  0.44627397796125406           0.9155003747144929 1.0000   
         C         C         1.0       0.42369895136391306           0.42053867242910553          0.9399271505482882 1.0000   
         C         C         1.0       0.45615523291674825           0.41779786897739857          0.9564764557467753 1.0000   
         C         C         1.0       0.4461149143642517  0.5094735945327896  0.8961500145836496 1.0000   
         C         C         1.0       0.41965015362823643           0.5593227914211717 0.9872921534778054 1.0000   
         C         C         1.0       0.45451736510170276           0.5626972306302891 0.9748446783656066 1.0000   
         C         C         1.0       0.4635016318649886  0.5471534517967985  0.9482086994649457 1.0000   
         C         C         1.0       0.43724697807039803           0.5318866058106817 0.9276996801671329 1.0000   
         C         C         1.0       0.40115578714392863           0.5312411382555705 0.9390114227594132 1.0000   
         C         C         1.0       0.3924629393869108  0.5428237992825737  0.9681851399407027 1.0000   
         C         C         1.0       0.41370412772723864           0.5157489403658143 0.8689802844498098 1.0000   
         C         C         1.0       0.40111755158148177           0.4867333566302573 0.8502979117604468 1.0000   
         C         C         1.0       0.37224136714526657           0.4903476119516293 0.8286914540783318 1.0000   
         C         C         1.0       0.35784433668158666           0.5254702639066431 0.8218206475664537 1.0000   
         C         C         1.0       0.3717958408300045  0.5545905886481841  0.839969824557022  1.0000   
         C         C         1.0       0.3963720471002874  0.5508517987262291  0.8647385072617177 1.0000   
         C         C         1.0       0.4947731274879184  0.5582447875675896  0.880372131975948  1.0000   
         C         C         1.0       0.5280318898807175  0.5677990080058177  0.8672728829928038 1.0000   
         C         C         1.0       0.5492081774940653  0.5439230061456936  0.8507931046616781 1.0000   
         C         C         1.0       0.5345366537319987  0.5091395773343076  0.8456608076195836 1.0000   
         C         C         1.0       0.5012204603951244  0.49811472617736585           0.8579372350943009 1.0000   
         C         C         1.0       0.48139740356713756           0.5211837650836325 0.8776998632759886 1.0000   
         H         H         1.0       0.509981890693859   0.36172531276537123           0.035502899100638086         1.0000   
         H         H         1.0       0.47573587896639025           0.4712943526337695 0.0024552830693018723        1.0000   
         H         H         1.0       0.5110818232944339  0.49641457473303646           0.04807325990862754          1.0000   
         H         H         1.0       0.5447891551747338  0.39044331688171424           0.07471278210902854          1.0000   
         H         H         1.0       0.4040409249841144  0.4567016515771179  0.990969095845616  1.0000   
         H         H         1.0       0.3675330585700691  0.476174926857384   0.034812425671393976         1.0000   
         H         H         1.0       0.408534251720329   0.3832858025550717  0.08419969666397331          1.0000   
         H         H         1.0       0.4390895767085991  0.3612107367675933  0.04153349627912939          1.0000   
         H         H         1.0       0.5141447285526503  0.4332336260875481  0.9587383344526735 1.0000   
         H         H         1.0       0.5104236768458537  0.47910120044196397           0.9266119888268043 1.0000   
         H         H         1.0       0.39644470761649564           0.4521860459509536 0.9047357112883235 1.0000   
         H         H         1.0       0.39639265936634177           0.40597328651241327          0.9466946569106525 1.0000   
         H         H         1.0       0.4788482167757154  0.5711503421862982  0.9895802522401177 1.0000   
         H         H         1.0       0.4930493477057947  0.5461949710992512  0.9474996513456735 1.0000   
         H         H         1.0       0.3801306527588368  0.5171373398679674  0.9256113157958362 1.0000   
         H         H         1.0       0.3646120713370378  0.5375559773911058  0.9767764206829931 1.0000   
         H         H         1.0       0.4156676480939139  0.4606417626026853  0.8538537692700325 1.0000   
         H         H         1.0       0.365456230253494   0.4677626676098536  0.8140951489005657 1.0000   
         H         H         1.0       0.3646706154693907  0.5811546597001672  0.8353448174168595 1.0000   
         H         H         1.0       0.4034730951881192  0.5737358245882992  0.8773229874357972 1.0000   
         H         H         1.0       0.47819453353548363           0.5778126675600281 0.8917512921440237 1.0000   
         H         H         1.0       0.5416737575830587  0.5921000856109513  0.8763328132404663 1.0000   
         H         H         1.0       0.5490394351719097  0.4891137658813927  0.8305164375989548 1.0000   
         H         H         1.0       0.48986809662840286           0.47190545220668184          0.8501361687491247 1.0000   
         C         C         1.0       0.7989740191676371  0.669186421331522   0.5926276067689242 1.0000   
         C         C         1.0       0.7856531718833257  0.6368830914151385  0.5804066677970215 1.0000   
         C         C         1.0       0.7900717193555777  0.6293430891378329  0.5500542361987603 1.0000   
         C         C         1.0       0.8066029978900416  0.6550061489954059  0.5309096762982787 1.0000   
         C         C         1.0       0.8239317612354243  0.6858221376263389  0.5440029948386411 1.0000   
         C         C         1.0       0.820132052113936   0.6915148130458936  0.5751733827596129 1.0000   
         H         H         1.0       0.7678814115205155  0.619104988187369   0.5955877707994517 1.0000   
         H         H         1.0       0.7802911279775603  0.6035050175506826  0.5412995644990616 1.0000   
         H         H         1.0       0.8401260098027323  0.7047508713859284  0.5304056375386986 1.0000   
         H         H         1.0       0.8353897463682093  0.7143141841262394  0.5846612146400638 1.0000   
         C         C         1.0       0.7855214910944883  0.7181506401413329  0.48771938028655676          1.0000   
         C         C         1.0       0.8083125566093367  0.6896351551783124  0.478747781724933  1.0000   
         C         C         1.0       0.8309111075595871  0.6942397991463448  0.4531723417073723 1.0000   
         C         C         1.0       0.8292853545545544  0.7259794896165984  0.43617154795067453          1.0000   
         C         C         1.0       0.8080903455349737  0.7540303434337623  0.4470505346443401 1.0000   
         C         C         1.0       0.7854792754284369  0.7498806820117442  0.4721078315263175 1.0000   
         C         C         1.0       0.8062731883295914  0.6509649187380642  0.4931395262689073 1.0000   
         C         C         1.0       0.7677553125037677  0.637696795352846   0.47735298163784523          1.0000   
         C         C         1.0       0.7661855543909906  0.6287419442964738  0.44653974045411265          1.0000   
         C         C         1.0       0.7323819445096167  0.6255705095963278  0.4302847153662373 1.0000   
         C         C         1.0       0.6980806834920511  0.6292797524521114  0.4457018781800138 1.0000   
         C         C         1.0       0.7020195497138     0.637654803562942   0.47664188823519743          1.0000   
         C         C         1.0       0.7353441992981096  0.6411300206235746  0.4938840420422456 1.0000   
         C         C         1.0       0.8778926239218622  0.6348334021554419  0.4927380498547968 1.0000   
         C         C         1.0       0.9082427865219049  0.611378886464631   0.4932949713281856 1.0000   
         C         C         1.0       0.900811246673661   0.5729992312184503  0.49388355376864357          1.0000   
         C         C         1.0       0.8637500511759645  0.5623719478088984  0.4899993140832072 1.0000   
         C         C         1.0       0.8362856209664259  0.5873697783784249  0.4879021176483711 1.0000   
         C         C         1.0       0.8427120701427618  0.624333118034877   0.4897642055710423 1.0000   
         C         C         1.0       0.9326895931472262  0.5453499775550792  0.5019231096927225 1.0000   
         C         C         1.0       0.04343852376983959           0.5836348728378022 0.4735172190971988 1.0000   
         C         C         1.0       0.039887361578780034          0.5706032153910225 0.5023511796601308 1.0000   
         C         C         1.0       0.005357872954899534          0.558110249166776  0.5124181984871483 1.0000   
         C         C         1.0       0.9746307216864959  0.5587313789455521  0.492599179971309  1.0000   
         C         C         1.0       0.978686631509266   0.5725394113052551  0.4632887563262126 1.0000   
         C         C         1.0       0.013261208365178856          0.5857252031201137 0.45398393589468344          1.0000   
         C         C         1.0       0.9321304800634145  0.5083187549675509  0.4833403921663161 1.0000   
         C         C         1.0       0.9549022201675587  0.48081190094403026           0.4951616185951717 1.0000   
         C         C         1.0       0.950608509079351   0.445732199647013   0.48427627919682426          1.0000   
         C         C         1.0       0.9268893270094323  0.43879737797048857           0.45841510012000414          1.0000   
         C         C         1.0       0.905253221645181   0.46725696701741654           0.44631401043557517          1.0000   
         C         C         1.0       0.9101773233033221  0.5024680587508884  0.45679864637640516          1.0000   
         C         C         1.0       0.9387629933236973  0.571033215446574   0.5563552792947369 1.0000   
         C         C         1.0       0.939738173342096   0.5672013844661279  0.5881399582470753 1.0000   
         C         C         1.0       0.9267279127471508  0.536201542394817   0.5997860017099323 1.0000   
         C         C         1.0       0.9094441061233492  0.5109530376088207  0.5815324522301382 1.0000   
         C         C         1.0       0.9089682410779871  0.5142912451216812  0.5505944307315118 1.0000   
         C         C         1.0       0.9271053554410255  0.5425431172669037  0.5365206569725229 1.0000   
         H         H         1.0       0.7695921132488344  0.7109157254875551  0.5084746822830238 1.0000   
         H         H         1.0       0.8458914598974516  0.6716798151051877  0.4442581047541274 1.0000   
         H         H         1.0       0.8492237442888622  0.7285924684167934  0.4179839882270339 1.0000   
         H         H         1.0       0.7696109852425975  0.7727960881797059  0.4804971861879166 1.0000   
         H         H         1.0       0.7924841628615031  0.6231559050959622  0.43421774160734306          1.0000   
         H         H         1.0       0.7298124666810462  0.6174246075445561  0.4069867287056333 1.0000   
         H         H         1.0       0.6767631468224896  0.6407384957151849  0.49059454547317755          1.0000   
         H         H         1.0       0.7324166898363776  0.6529561532438778  0.5171852472799212 1.0000   
         H         H         1.0       0.8860245639446441  0.6639605691035391  0.49432121947599705          1.0000   
         H         H         1.0       0.9365681370821344  0.6227234313570427  0.49442093236235113          1.0000   
         H         H         1.0       0.8537102952897991  0.5360553013354807  0.4931288430991797 1.0000   
         H         H         1.0       0.8078357980609904  0.5774488188816778  0.487072640187146  1.0000   
         H         H         1.0       0.06349753553117576           0.5692997020608316 0.5190735622078257 1.0000   
         H         H         1.0       0.005831212729162649          0.5499613570856471 0.5354986304525738 1.0000   
         H         H         1.0       0.9540007197993621  0.5806797787466081  0.4499867667565145 1.0000   
         H         H         1.0       0.016427845659099383          0.5943270418755812 0.4297056232018263 1.0000   
         H         H         1.0       0.9735409950253101  0.4860221552697979  0.5145440069823389 1.0000   
         H         H         1.0       0.9679103935419112  0.42625030722250234           0.4971993283322378 1.0000   
         H         H         1.0       0.8871039941201766  0.4628329460211212  0.428265810417325  1.0000   
         H         H         1.0       0.8940931341211017  0.525187732520522   0.44896854788011226          1.0000   
         H         H         1.0       0.9521818511910606  0.5959944976186193  0.5482509241883412 1.0000   
         H         H         1.0       0.9497662600894214  0.5864940021667188  0.6042123725880232 1.0000   
         H         H         1.0       0.8918264914065838  0.4925415774266549  0.5918538385932626 1.0000   
         H         H         1.0       0.8916768912216293  0.49693441851201736           0.5349207818101577 1.0000   
         C         C         1.0       0.005675551362662734          0.48178066866909397          0.8486216422722254 1.0000   
         C         C         1.0       0.018067436756324495          0.5095470331336469 0.8300069207905911 1.0000   
         C         C         1.0       0.9935936633371434  0.5241828028613615  0.8085202919983426 1.0000   
         C         C         1.0       0.9554973573854336  0.5144417950254473  0.8066514793739862 1.0000   
         C         C         1.0       0.9425487527638784  0.49114542676336775           0.8287256024006169 1.0000   
         C         C         1.0       0.9679435252759916  0.475427283703869   0.8496739490324792 1.0000   
         H         H         1.0       0.047787497944115964          0.5134259078919595 0.8271848689283503 1.0000   
         H         H         1.0       0.0051095703700458905         0.5384854185052653 0.7889801647813289 1.0000   
         H         H         1.0       0.9130901883563124  0.48512194588114094           0.8307533065918479 1.0000   
         H         H         1.0       0.9596897808637698  0.45346821599515325           0.8642726008228085 1.0000   
         C         C         1.0       0.9097263575822031  0.46018085631245714           0.7674777169299013 1.0000   
         C         C         1.0       0.9007534281346883  0.49729690104283686           0.7647409509161139 1.0000   
         C         C         1.0       0.8690964827625368  0.5075019548952548  0.7483372504868607 1.0000   
         C         C         1.0       0.8472144329565315  0.4817389288986835  0.7322240025762647 1.0000   
         C         C         1.0       0.8574399977868394  0.445799927829574   0.733967787779228  1.0000   
         C         C         1.0       0.888051730588415   0.4349313492432819  0.7510996429631834 1.0000   
         C         C         1.0       0.9294001909853485  0.5272953610998635  0.7792789091703338 1.0000   
         C         C         1.0       0.9497543109721178  0.5357963374848924  0.7468313300805166 1.0000   
         C         C         1.0       0.9352876451408332  0.5623070064769482  0.7267465127853364 1.0000   
         C         C         1.0       0.9442001647380361  0.5644935357907587  0.6971968315643978 1.0000   
         C         C         1.0       0.9666461661703543  0.538536348235501   0.6848624579614271 1.0000   
         C         C         1.0       0.9831258213757488  0.5122732107731953  0.7022874323456072 1.0000   
         C         C         1.0       0.9741319859149778  0.5090464550017195  0.7337226321019718 1.0000   
         C         C         1.0       0.8787644951012036  0.5612370068483394  0.8086905980201818 1.0000   
         C         C         1.0       0.8600059201279714  0.5928499966771441  0.8175835373145113 1.0000   
         C         C         1.0       0.877461434931092   0.6280417803384166  0.8163245556138883 1.0000   
         C         C         1.0       0.9133479697612147  0.6295433243918556  0.807089059450705  1.0000   
         C         C         1.0       0.9302414130328447  0.5979762890865175  0.7957063243554054 1.0000   
         C         C         1.0       0.9117763229830065  0.5639271566546108  0.794824193387648  1.0000   
         C         C         1.0       0.8564051845307422  0.6660880268443037  0.8265695053002889 1.0000   
         C         C         1.0       0.8053724911485244  0.7105463229670276  0.741555376396033  1.0000   
         C         C         1.0       0.7898312099824939  0.6813405559003627  0.7568003471112729 1.0000   
         C         C         1.0       0.8094415703644119  0.6619613984487006  0.7803774651552791 1.0000   
         C         C         1.0       0.8426151854200803  0.676727098843263   0.7923524633308624 1.0000   
         C         C         1.0       0.8587431419088983  0.702985379232083   0.7748986153265521 1.0000   
         C         C         1.0       0.8420845207814938  0.7189641927202993  0.7497811901517863 1.0000   
         C         C         1.0       0.8772069194817788  0.7014073014040988  0.8421192533873941 1.0000   
         C         C         1.0       0.9114239361296991  0.7000834025016311  0.8591091316374257 1.0000   
         C         C         1.0       0.9273434936968775  0.7327109595425573  0.8712552475865386 1.0000   
         C         C         1.0       0.9095798909766194  0.7649764663817975  0.8655924208363359 1.0000   
         C         C         1.0       0.8766439612203942  0.7652546417718258  0.8500312888012056 1.0000   
         C         C         1.0       0.8597623612505678  0.7346989714214087  0.8396510117335025 1.0000   
         C         C         1.0       0.7915127240391284  0.6713421711593607  0.8512459362255674 1.0000   
         C         C         1.0       0.7636837701609364  0.6613408006943936  0.871704759647889  1.0000   
         C         C         1.0       0.77390676779107    0.6398818689276109  0.8955299449318875 1.0000   
         C         C         1.0       0.8100965821715036  0.6288983515696366  0.8996364666807843 1.0000   
         C         C         1.0       0.8372238080928772  0.6390918142185416  0.8788101257065047 1.0000   
         C         C         1.0       0.8266049106788492  0.658281498346463   0.853043113643044  1.0000   
         H         H         1.0       0.9360024833891617  0.4506204616808337  0.7776696285711547 1.0000   
         H         H         1.0       0.8608533072856259  0.5366386506101753  0.7464052434413688 1.0000   
         H         H         1.0       0.8225364018585624  0.49022539874273385           0.7205168652053077 1.0000   
         H         H         1.0       0.8906031033953548  0.40605249770503987           0.7512467143586049 1.0000   
         H         H         1.0       0.9155066962863416  0.5833268243710943  0.7339169112477854 1.0000   
         H         H         1.0       0.9316267893760892  0.5840207857814602  0.6799765971533812 1.0000   
         H         H         1.0       0.9984513799588475  0.491954547455324   0.6908222776148178 1.0000   
         H         H         1.0       0.9815850443829632  0.48404440816406796           0.7461616340742451 1.0000   
         H         H         1.0       0.8633752088078052  0.5347552841191359  0.810616238342147  1.0000   
         H         H         1.0       0.8338302022767295  0.5895010209982251  0.82932683441884   1.0000   
         H         H         1.0       0.9276500807730821  0.6556440555676685  0.8097133653182128 1.0000   
         H         H         1.0       0.9567954548159285  0.5976565964384482  0.7826744819719125 1.0000   
         H         H         1.0       0.762104756248903   0.6709749143908719  0.7488659876286461 1.0000   
         H         H         1.0       0.7928777320338315  0.6402442450292966  0.7908805450123562 1.0000   
         H         H         1.0       0.8846227997783419  0.7149820044046071  0.784074127311084  1.0000   
         H         H         1.0       0.8572372079958738  0.7430465872886198  0.7406227777759822 1.0000   
         H         H         1.0       0.9252681199985201  0.674305604406352   0.8639723876046634 1.0000   
         H         H         1.0       0.9510357173085726  0.7309402157132447  0.8868156565772137 1.0000   
         H         H         1.0       0.8620364257924517  0.7909063380740141  0.8456484197398854 1.0000   
         H         H         1.0       0.8308491833922996  0.7402429050744639  0.8283136675620242 1.0000   
         H         H         1.0       0.7867967901918713  0.6907303659197742  0.8332401288674367 1.0000   
         H         H         1.0       0.7355374622769361  0.6685146538871192  0.8671501575387048 1.0000   
         H         H         1.0       0.8157544795491645  0.6126630966547265  0.9196511980006807 1.0000   
         H         H         1.0       0.8646380496296961  0.6309154604605063  0.8848860781266348 1.0000   
         C         C         1.0       0.5675029112183478  0.8261928194505056  0.5617493387545827 1.0000   
         C         C         1.0       0.581023240995249   0.7952297313311877  0.5465208854536957 1.0000   
         C         C         1.0       0.5956974694395211  0.799206520330775   0.5174068850153776 1.0000   
         C         C         1.0       0.5976368717352961  0.8350873892749969  0.5051638591730043 1.0000   
         C         C         1.0       0.5857942433975769  0.8643731158019432  0.5224116976881134 1.0000   
         C         C         1.0       0.5694417092809285  0.8608615279949543  0.5495630078008483 1.0000   
         H         H         1.0       0.5846135009403752  0.7684861470557744  0.5577132206746297 1.0000   
         H         H         1.0       0.608129539139203   0.7750563475569269  0.507643475946232  1.0000   
         H         H         1.0       0.5944278377359771  0.8913359560719999  0.5148940586493362 1.0000   
         H         H         1.0       0.5597410049889112  0.8847626914630362  0.5627755006274253 1.0000   
         C         C         1.0       0.5682748104422131  0.8796506451488211  0.4493336766080543 1.0000   
         C         C         1.0       0.6064292660220475  0.8761739543063066  0.45649332787403113          1.0000   
         C         C         1.0       0.6307966972287066  0.8976157919165392  0.4410608003852858 1.0000   
         C         C         1.0       0.6193599189870331  0.9259106669997755  0.42348523013933786          1.0000   
         C         C         1.0       0.5824119150555245  0.9298356298759551  0.4159787667433743 1.0000   
         C         C         1.0       0.5566833310912753  0.906433460188871   0.42821740873838793          1.0000   
         C         C         1.0       0.6229288887620339  0.843790494217946   0.4760804550497477 1.0000   
         C         C         1.0       0.6195381772073472  0.8132651651143579  0.45022242433251375          1.0000   
         C         C         1.0       0.6493997453514265  0.8062964635185516  0.43069791959627185          1.0000   
         C         C         1.0       0.646400568336761   0.7763849697511322  0.41085580041460484          1.0000   
         C         C         1.0       0.6140006965529322  0.7558096471694077  0.4078141281973817 1.0000   
         C         C         1.0       0.5825902488657323  0.7655821482971743  0.4241380554309717 1.0000   
         C         C         1.0       0.5862916103462672  0.7930738607509105  0.44486347217967154          1.0000   
         C         C         1.0       0.6740063075866354  0.8778517098233981  0.5062064513076237 1.0000   
         C         C         1.0       0.7052047842351543  0.8794139450797748  0.5252450545239187 1.0000   
         C         C         1.0       0.7229870617060031  0.8479360628236627  0.5350895010669592 1.0000   
         C         C         1.0       0.7136293432932225  0.8168140235506315  0.5189681504868079 1.0000   
         C         C         1.0       0.683220955125156   0.8142095287790839  0.5002271600523501 1.0000   
         C         C         1.0       0.6625902750708681  0.8450367758090689  0.49393179144420524          1.0000   
         C         C         1.0       0.7544000467062455  0.8449086713996254  0.5620650406649697 1.0000   
         C         C         1.0       0.8452548386101257  0.8664228922721358  0.49987814014224036          1.0000   
         C         C         1.0       0.8209667163484723  0.8921783648042949  0.5088009147493958 1.0000   
         C         C         1.0       0.7967598084752633  0.8874118621835855  0.5322016786441454 1.0000   
         C         C         1.0       0.7923498742553913  0.8540393950969933  0.5448306709875282 1.0000   
         C         C         1.0       0.8163546384634288  0.8261949198347995  0.5353265313569242 1.0000   
         C         C         1.0       0.8460127520972219  0.8332968404394945  0.515945447530111  1.0000   
         C         C         1.0       0.7542688915082945  0.808544634441399   0.5846338682745587 1.0000   
         C         C         1.0       0.7229623690292246  0.7864880392636137  0.5845773493233635 1.0000   
         C         C         1.0       0.7237753855567761  0.7524411755045393  0.5986790640243619 1.0000   
         C         C         1.0       0.7555729890072584  0.7428015755837155  0.6161849440511622 1.0000   
         C         C         1.0       0.7838768171658772  0.7673356126117106  0.619155148339094  1.0000   
         C         C         1.0       0.7843189012937519  0.7993365946696124  0.6017143052081707 1.0000   
         C         C         1.0       0.7749841195706408  0.891767036758633   0.6048956208143348 1.0000   
         C         C         1.0       0.7674149984573403  0.9202169297499245  0.6244406956910412 1.0000   
         C         C         1.0       0.7329443050193765  0.9310006150512827  0.6308150015374158 1.0000   
         C         C         1.0       0.7043345506032263  0.9085262263410109  0.6201410521950325 1.0000   
         C         C         1.0       0.7107975741557082  0.8820136172416109  0.598937225872632  1.0000   
         C         C         1.0       0.7456906290416266  0.8750234263949854  0.5891540519350161 1.0000   
         H         H         1.0       0.5496251254081512  0.8624704671402543  0.4605827746786212 1.0000   
         H         H         1.0       0.6603381015416895  0.8905806189511154  0.44246473975595646          1.0000   
         H         H         1.0       0.6386193998828109  0.947222812319939   0.41630552415883365          1.0000   
         H         H         1.0       0.5272000390728635  0.9064501499186701  0.42069190764468206          1.0000   
         H         H         1.0       0.6753419554371756  0.8224328880863416  0.4327864089955942 1.0000   
         H         H         1.0       0.6689636916211182  0.7713792480148267  0.39493362760845074          1.0000   
         H         H         1.0       0.5569277042937079  0.7515737341205391  0.4220391829670761 1.0000   
         H         H         1.0       0.5634344454507958  0.7989929785962256  0.45934407037432456          1.0000   
         H         H         1.0       0.657334620807056   0.9020360791809442  0.5040339936478717 1.0000   
         H         H         1.0       0.7122321440702885  0.9058789969774073  0.5358707479748643 1.0000   
         H         H         1.0       0.7294877243493851  0.7916342474038497  0.5228849107120122 1.0000   
         H         H         1.0       0.6759763319157789  0.7871110180851397  0.4926059328506156 1.0000   
         H         H         1.0       0.8207264023043156  0.9160318263375147  0.4946747653862708 1.0000   
         H         H         1.0       0.781210471522316   0.910352977783394   0.5415688801731497 1.0000   
         H         H         1.0       0.8111047492943741  0.7973423963043554  0.5415266157270155 1.0000   
         H         H         1.0       0.8650876590766909  0.810955762126329   0.5103055034538261 1.0000   
         H         H         1.0       0.698056504978185   0.7935115085165471  0.5720960303348313 1.0000   
         H         H         1.0       0.6995398966169858  0.7346428704707276  0.5956219089588951 1.0000   
         H         H         1.0       0.8107389134436911  0.7652710272976092  0.6288218622923313 1.0000   
         H         H         1.0       0.8074213219149946  0.8186969052432413  0.6041431533937563 1.0000   
         H         H         1.0       0.803334830111387   0.8842664986712563  0.6013207484333687 1.0000   
         H         H         1.0       0.7913573306382468  0.9363747932786685  0.6312618374065219 1.0000   
         H         H         1.0       0.6746761221023028  0.916121593505486   0.6240093722602343 1.0000   
         H         H         1.0       0.6858727446675542  0.871501118943297   0.5862974123879018 1.0000   
         C         C         1.0       0.8169643828425188  0.9546247573618262  0.8480972919645782 1.0000   
         C         C         1.0       0.782031667788831   0.9676080983384931  0.8398749308870167 1.0000   
         C         C         1.0       0.7599550777027523  0.9448359367385749  0.8226291748233362 1.0000   
         C         C         1.0       0.7709450246311175  0.909942366161848   0.8137716304409065 1.0000   
         C         C         1.0       0.8034950931791539  0.8954943847375653  0.8269294070041109 1.0000   
         C         C         1.0       0.825575069480063   0.918123683007369   0.8457913649480401 1.0000   
         H         H         1.0       0.7748709304291124  0.9961314659552203  0.8390761098140335 1.0000   
         H         H         1.0       0.7349928937665512  0.958868034333727   0.8122413047992224 1.0000   
         H         H         1.0       0.8078788797322481  0.8670829679154924  0.8244162812214935 1.0000   
         H         H         1.0       0.8501727654428175  0.9043844962077621  0.8536009151945498 1.0000   
         C         C         1.0       0.7892842812659072  0.8509213107241189  0.7648022118863119 1.0000   
         C         C         1.0       0.753883506867084   0.849807796969438   0.7769314706664361 1.0000   
         C         C         1.0       0.7306619947926395  0.8217845234934193  0.7681403047156191 1.0000   
         C         C         1.0       0.7410094683651766  0.7959579631341803  0.7455478765970809 1.0000   
         C         C         1.0       0.7778319717378688  0.794700055411075   0.7378220846842183 1.0000   
         C         C         1.0       0.8017285381289599  0.8219771582467589  0.7467646190529837 1.0000   
         C         C         1.0       0.7404529954332261  0.8886454848174179  0.791651132798011  1.0000   
         C         C         1.0       0.7267853961571885  0.9091967468485145  0.7602235146899702 1.0000   
         C         C         1.0       0.6965295960924347  0.8983845461376558  0.7412508084000375 1.0000   
         C         C         1.0       0.6884941463195444  0.9145484653235395  0.7139203867062089 1.0000   
         C         C         1.0       0.7130640397475545  0.9423395363715529  0.7032077930432493 1.0000   
         C         C         1.0       0.7448518272933052  0.9523168190160402  0.7206332323119449 1.0000   
         C         C         1.0       0.7507509798774937  0.9348011173747992  0.7488115580311894 1.0000   
         C         C         1.0       0.7088445934630646  0.8543546104099844  0.833422204517353  1.0000   
         C         C         1.0       0.6763923771390079  0.8442239778290479  0.8480276566748026 1.0000   
         C         C         1.0       0.6429402426024489  0.8635134449882519  0.8416748588742553 1.0000   
         C         C         1.0       0.6460033970132905  0.8979017099375476  0.8289444626227745 1.0000   
         C         C         1.0       0.6788040192621797  0.9078283930452637  0.8159489679030153 1.0000   
         C         C         1.0       0.7078528651312767  0.8840377281065728  0.814507749589716  1.0000   
         C         C         1.0       0.6033107337049811  0.8406570204536896  0.8390224486661207 1.0000   
         C         C         1.0       0.6036648266564284  0.8361338073180875  0.7370778627701693 1.0000   
         C         C         1.0       0.6224879199773967  0.8115369013658692  0.7556285252567543 1.0000   
         C         C         1.0       0.6227975439990169  0.8122359518118821  0.787546538594553  1.0000   
         C         C         1.0       0.6026051171881003  0.838270686103618   0.8017589719501977 1.0000   
         C         C         1.0       0.587444604483117   0.8658788999858301  0.7832412221719718 1.0000   
         C         C         1.0       0.587009120550482   0.8652389449138117  0.7515876698459664 1.0000   
         C         C         1.0       0.5630855860831139  0.8589733272115699  0.8475067539746431 1.0000   
         C         C         1.0       0.5612789100634998  0.8938571855542111  0.861632352688052  1.0000   
         C         C         1.0       0.5256209149781104  0.9123151549036487  0.8601905651322147 1.0000   
         C         C         1.0       0.4935716030711545  0.894360893104104   0.84949205083713   1.0000   
         C         C         1.0       0.49718648164218315           0.8607833471493569 0.8366910065944304 1.0000   
         C         C         1.0       0.5312304993843989  0.8430987429886926  0.8348449594724726 1.0000   
         C         C         1.0       0.6004814300343593  0.7700017298706342  0.8509415947794244 1.0000   
         C         C         1.0       0.6075285905026131  0.740883220882935   0.8701431574902863 1.0000   
         C         C         1.0       0.6159887156636259  0.7473664888103199  0.9012422181715832 1.0000   
         C         C         1.0       0.6181973271066662  0.7830133675274157  0.9121208982710975 1.0000   
         C         C         1.0       0.6097707569081315  0.812297922690705   0.8928586228431925 1.0000   
         C         C         1.0       0.6046521367663024  0.8066760356978072  0.8622611876106465 1.0000   
         H         H         1.0       0.8071462267710818  0.8734939900065873  0.7658025323093145 1.0000   
         H         H         1.0       0.7023312061615958  0.8217942573056908  0.7782952473300606 1.0000   
         H         H         1.0       0.7219305240339563  0.77623867516066    0.73461393483113   1.0000   
         H         H         1.0       0.8267508522768009  0.8254270670255037  0.73251764798253   1.0000   
         H         H         1.0       0.6802427013696412  0.87339189245844    0.7485333231366859 1.0000   
         H         H         1.0       0.6644464303700829  0.9073273301147453  0.7008043126911108 1.0000   
         H         H         1.0       0.7637156444990093  0.9730277014303832  0.7126593503752774 1.0000   
         H         H         1.0       0.7754784755425544  0.9426694195739647  0.7602296356078416 1.0000   
         H         H         1.0       0.7332593884626277  0.8375787801026756  0.83668272930982   1.0000   
         H         H         1.0       0.6777904752177742  0.81950477540095    0.8592646421223716 1.0000   
         H         H         1.0       0.6215937575924648  0.916113504395656   0.823772022197788  1.0000   
         H         H         1.0       0.6754855334873116  0.9320634476647104  0.8025777559721392 1.0000   
         H         H         1.0       0.6380474203085573  0.7875271862367487  0.7449733340194612 1.0000   
         H         H         1.0       0.6395852112695313  0.7915548477250727  0.8013103422077145 1.0000   
         H         H         1.0       0.5773547580556257  0.8897510812473056  0.7951245449492335 1.0000   
         H         H         1.0       0.5748797541245728  0.8883403920056817  0.7402228166583129 1.0000   
         H         H         1.0       0.5870731398107728  0.9082071543688645  0.8657361248968947 1.0000   
         H         H         1.0       0.5238820080054765  0.9417688053053106  0.8700147716038075 1.0000   
         H         H         1.0       0.47387944368469986           0.84498159264875   0.8246930459080893 1.0000   
         H         H         1.0       0.5305153250685237  0.8159926833259569  0.8234682331455293 1.0000   
         H         H         1.0       0.5911299643886361  0.7646643508100758  0.8271072415559263 1.0000   
         H         H         1.0       0.601221624107319   0.7131778432300226  0.860719118703941  1.0000   
         H         H         1.0       0.629049560788787   0.7897103158496034  0.9368420505305999 1.0000   
         H         H         1.0       0.6138360088903783  0.8399209046461165  0.9007343703754634 1.0000   
         C         C         1.0       0.5975925709070766  0.5378039493338336  0.5480474431055703 1.0000   
         C         C         1.0       0.5987055005773945  0.5292123247380487  0.5173933071463658 1.0000   
         C         C         1.0       0.5697932428862974  0.5396972746872761  0.4967755379935915 1.0000   
         C         C         1.0       0.5386512739492384  0.5589635417477494  0.5082385757401287 1.0000   
         C         C         1.0       0.5391134612569247  0.5670885961795823  0.5401068843441649 1.0000   
         C         C         1.0       0.5680339874889052  0.5558457136803202  0.5593115242490672 1.0000   
         H         H         1.0       0.6197055917178602  0.512205139584348   0.5073896412187082 1.0000   
         H         H         1.0       0.5667445400662597  0.5280619393411841  0.47365605705169117          1.0000   
         H         H         1.0       0.5154135971963953  0.581655389421979   0.549618285060327  1.0000   
         H         H         1.0       0.5665351238651409  0.5603342961246863  0.5845455807026428 1.0000   
         C         C         1.0       0.49138931375863243           0.5056862431171184 0.4680446140080155 1.0000   
         C         C         1.0       0.4824621337727113  0.5344216926086692  0.48759082335521325          1.0000   
         C         C         1.0       0.4553961083417877  0.5257357162124852  0.5093768368969918 1.0000   
         C         C         1.0       0.4341193191661254  0.4948163385461943  0.5063225576085761 1.0000   
         C         C         1.0       0.44389523633134564           0.4673692541334067 0.4857061971717141 1.0000   
         C         C         1.0       0.4748653196215129  0.4722307644988759  0.46815360705436837          1.0000   
         C         C         1.0       0.5040641546674732  0.5722611040169614  0.48687358861314817          1.0000   
         C         C         1.0       0.5184445662461915  0.5872616904130749  0.4540780890208619 1.0000   
         C         C         1.0       0.4924184060429519  0.5823040323125385  0.4295786729142778 1.0000   
         C         C         1.0       0.4945861478464016  0.6047929925416651  0.4045888940067204 1.0000   
         C         C         1.0       0.5206485349489491  0.6310391417515577  0.40239461766695794          1.0000   
         C         C         1.0       0.5496431957657032  0.6309341549482889  0.42478127199776233          1.0000   
         C         C         1.0       0.5486138128558753  0.6092724494570277  0.4510212862302665 1.0000   
         C         C         1.0       0.4455226611330749  0.6149755924789868  0.49609628923280946          1.0000   
         C         C         1.0       0.42868540297937524           0.6462143070154576 0.5058740839162947 1.0000   
         C         C         1.0       0.4497904551615256  0.675908656690823   0.5150586486571463 1.0000   
         C         C         1.0       0.48865569645564166           0.6723897716834213 0.5147924599789286 1.0000   
         C         C         1.0       0.5062616351076579  0.6400006516115028  0.5086570758498632 1.0000   
         C         C         1.0       0.4843387547754609  0.6089472413910397  0.49939611363653297          1.0000   
         C         C         1.0       0.43108221896052445           0.7139425445305503 0.5205525585320527 1.0000   
         C         C         1.0       0.40766653180626955           0.7759019269616096 0.436908955811918  1.0000   
         C         C         1.0       0.38554309110309165           0.7448224388843886 0.4412669070221349 1.0000   
         C         C         1.0       0.39669025612259995           0.7222121313740902 0.46571206118689623          1.0000   
         C         C         1.0       0.42742611803359765           0.7296067779393403 0.48459219109749807          1.0000   
         C         C         1.0       0.45388857770108065           0.7531671465050497 0.4733997374142226 1.0000   
         C         C         1.0       0.44263584820883045           0.7784178618210167 0.45190584006521545          1.0000   
         C         C         1.0       0.451026467832096   0.7438353058875913  0.5432383439634711 1.0000   
         C         C         1.0       0.47411314723215964           0.732498086387834  0.5662801556741248 1.0000   
         C         C         1.0       0.49227339189221797           0.7588146814988898 0.5845952446859611 1.0000   
         C         C         1.0       0.4870750367725891  0.7955618608753479  0.580915609820072  1.0000   
         C         C         1.0       0.4600008549434825  0.8067121440795392  0.5605680778931765 1.0000   
         C         C         1.0       0.4434813792796303  0.7816760364185441  0.5413369239642889 1.0000   
         C         C         1.0       0.3637234382614845  0.7399418948000537  0.5299426647729348 1.0000   
         C         C         1.0       0.33615466730535937           0.7481273966494176 0.549741013250637  1.0000   
         C         C         1.0       0.33323566852630454           0.7299928452160336 0.5783598128315934 1.0000   
         C         C         1.0       0.35714898724117866           0.7005640894831925 0.5831710021490983 1.0000   
         C         C         1.0       0.3863019898937099  0.6929587487188872  0.5629011070013106 1.0000   
         C         C         1.0       0.39146491656827476           0.7127335137379739 0.5363698379556645 1.0000   
         H         H         1.0       0.5140583753671748  0.5124888357270977  0.4505681384222189 1.0000   
         H         H         1.0       0.44788595206395954           0.5457717432194542 0.5263634342015706 1.0000   
         H         H         1.0       0.40923818858184313           0.49047572287085833          0.5207814303981707 1.0000   
         H         H         1.0       0.4781754889864842  0.4521477921320645  0.4508061391705252 1.0000   
         H         H         1.0       0.4692536245721206  0.5657079753565586  0.43151210431853915          1.0000   
         H         H         1.0       0.4774036210863144  0.5985862796977693  0.3835783909041492 1.0000   
         H         H         1.0       0.5727637107253174  0.6479574277168317  0.4222352790231115 1.0000   
         H         H         1.0       0.5684763547591888  0.6119501888203361  0.469355405113773  1.0000   
         H         H         1.0       0.42926846758402004           0.5911920409991085 0.4889594388999922 1.0000   
         H         H         1.0       0.39956181232653815           0.6490247952251785 0.5073129436334695 1.0000   
         H         H         1.0       0.5095050032357822  0.6930857062725697  0.5213662301025428 1.0000   
         H         H         1.0       0.5365677784649792  0.6388795740600675  0.5067466491089986 1.0000   
         H         H         1.0       0.360739799249266   0.7423893859125205  0.42891620105968853          1.0000   
         H         H         1.0       0.37657843760245185           0.6989445271410252 0.46860676222308795          1.0000   
         H         H         1.0       0.47978401003999455           0.7581901468148416 0.4867938920726334 1.0000   
         H         H         1.0       0.4613112175340168  0.8022628551041725  0.4481822460731803 1.0000   
         H         H         1.0       0.4800119808441505  0.703012280725332   0.5639044343512416 1.0000   
         H         H         1.0       0.5147246351670629  0.7519460122356372  0.6023798792918552 1.0000   
         H         H         1.0       0.45491045296870664           0.8347494896278734 0.5566982947268059 1.0000   
         H         H         1.0       0.42458499559948243           0.7921427616247853 0.5230886995217978 1.0000   
         H         H         1.0       0.3656238932880437  0.7554602883995727  0.5090194375927132 1.0000   
         H         H         1.0       0.31891799052990993           0.77187227084684   0.5434203918618818 1.0000   
         H         H         1.0       0.3593091481596618  0.6866666815095411  0.6054714189073398 1.0000   
         H         H         1.0       0.40843936220134874           0.6742938916631399 0.5705993916380658 1.0000   
         C         C         1.0       0.3918241460243884  0.7667193739849719  0.7991338734027315 1.0000   
         C         C         1.0       0.3749643417618869  0.7506185583090194  0.7745964851178457 1.0000   
         C         C         1.0       0.39301309854213895           0.7489485015177733 0.7462849930406465 1.0000   
         C         C         1.0       0.42834914199853524           0.764597237043127  0.7441493205958425 1.0000   
         C         C         1.0       0.4463949691388378  0.780445593101795   0.7697762941818513 1.0000   
         C         C         1.0       0.4271139942203757  0.7818741580250916  0.7969175058421308 1.0000   
         H         H         1.0       0.3488459606606166  0.7388007727855231  0.7752973451101778 1.0000   
         H         H         1.0       0.38114615200002916           0.7303592581034011 0.7286031295738616 1.0000   
         H         H         1.0       0.4765817690601621  0.7890024403046487  0.7720632402942431 1.0000   
         H         H         1.0       0.4407099722118499  0.7918004742205011  0.8175649386829771 1.0000   
         C         C         1.0       0.47971530329142675           0.8250473538121597 0.7098400053183734 1.0000   
         C         C         1.0       0.47848282728790187           0.787669468593863  0.7025326510306832 1.0000   
         C         C         1.0       0.5063231204442511  0.7750196882668305  0.6824225092832776 1.0000   
         C         C         1.0       0.5352713843528327  0.7960247696055576  0.6756837243173596 1.0000   
         C         C         1.0       0.5388282182152005  0.8304528890218935  0.686603003294782  1.0000   
         C         C         1.0       0.508423683470646   0.8469269354871668  0.70092164666855   1.0000   
         C         C         1.0       0.4466379879218623  0.7607791343536897  0.7106277968199192 1.0000   
         C         C         1.0       0.4185621539188699  0.7719035652618838  0.6836061702869621 1.0000   
         C         C         1.0       0.42213200321028205           0.7567325243378414 0.6542795082169759 1.0000   
         C         C         1.0       0.39856072534330705           0.765187717981065  0.6295554685109438 1.0000   
         C         C         1.0       0.3681555594412645  0.7871682272899354  0.6345288458511192 1.0000   
         C         C         1.0       0.36592346641760265           0.8061924528783228 0.6622195448650453 1.0000   
         C         C         1.0       0.3902287751603832  0.7982149074626244  0.6860579647258928 1.0000   
         C         C         1.0       0.49057047229926787           0.7097731201881855 0.7298259113341412 1.0000   
         C         C         1.0       0.4973680923953829  0.6756556783204999  0.7369066221982316 1.0000   
         C         C         1.0       0.4732701694896965  0.6467269279318255  0.7309478820715383 1.0000   
         C         C         1.0       0.44422240327912216           0.654709530144243  0.70931476039154   1.0000   
         C         C         1.0       0.4371898181193553  0.691188981616559   0.7007560636045523 1.0000   
         C         C         1.0       0.4588728125842712  0.7192907300070964  0.7124543060099008 1.0000   
         C         C         1.0       0.4767640993627176  0.6081868310992696  0.7490066579299206 1.0000   
         C         C         1.0       0.5549704821503989  0.5382553103259075  0.6974795664163799 1.0000   
         C         C         1.0       0.5585210275386279  0.5430112154204024  0.7291379732408558 1.0000   
         C         C         1.0       0.5334169831065203  0.5628756684932101  0.7446626861417909 1.0000   
         C         C         1.0       0.5081200979270857  0.5850563635396906  0.729147271401373  1.0000   
         C         C         1.0       0.5042636213893829  0.5785383032182132  0.6977175794158238 1.0000   
         C         C         1.0       0.5276059021807847  0.5560926359735494  0.6810297138496859 1.0000   
         C         C         1.0       0.43901200151156733           0.5832129492920711 0.7497272752817424 1.0000   
         C         C         1.0       0.4028124402110575  0.5965178674207618  0.7481764654420743 1.0000   
         C         C         1.0       0.3721031774245761  0.5749595078357651  0.7510421576187577 1.0000   
         C         C         1.0       0.3754067966502635  0.5393327873128387  0.7563192465415474 1.0000   
         C         C         1.0       0.41161920560540965           0.5248525845881582 0.7597207290292615 1.0000   
         C         C         1.0       0.44271977360244463           0.5473101885673792 0.7569954911026235 1.0000   
         C         C         1.0       0.5227407632221563  0.625384151806962   0.7976364785349378 1.0000   
         C         C         1.0       0.5285151105597936  0.6433900353843498  0.8251453648488796 1.0000   
         C         C         1.0       0.497628036734381   0.6526587283260513  0.8422905127967001 1.0000   
         C         C         1.0       0.4621999214463906  0.64814364529311    0.8300853664930619 1.0000   
         C         C         1.0       0.45684829110153463           0.631065616496508  0.8026662716362531 1.0000   
         C         C         1.0       0.4865373287583566  0.6182414816154677  0.7841935930852003 1.0000   
         H         H         1.0       0.45703265181827607           0.8336462834979331 0.723905648085657  1.0000   
         H         H         1.0       0.5049066553415309  0.7499544362752195  0.6708986969028035 1.0000   
         H         H         1.0       0.5581731828183564  0.784578634548262   0.6627169992222246 1.0000   
         H         H         1.0       0.5107910199591558  0.8748215307893107  0.711357882391464  1.0000   
         H         H         1.0       0.4455682959844955  0.7387066433197623  0.6489057921285759 1.0000   
         H         H         1.0       0.40281810060951145           0.7547577577952106 0.6085961824763296 1.0000   
         H         H         1.0       0.3446855542276637  0.8241468369633791  0.6674396877390419 1.0000   
         H         H         1.0       0.38484837615100065           0.8095634419800302 0.7083450898485658 1.0000   
         H         H         1.0       0.5103925358786662  0.7322901248809942  0.7344220330437568 1.0000   
         H         H         1.0       0.5219823410534344  0.6697644481913158  0.7522767082416215 1.0000   
         H         H         1.0       0.42535840633046845           0.6328700713527126 0.7021344047068594 1.0000   
         H         H         1.0       0.41076992926205985           0.6947934672776088 0.6905688465563378 1.0000   
         H         H         1.0       0.5803807672117556  0.5271507298459637  0.740855160383225  1.0000   
         H         H         1.0       0.5361605322973052  0.5592481023345047  0.7701076235035709 1.0000   
         H         H         1.0       0.4804094967899682  0.5904976512245532  0.6869569456515736 1.0000   
         H         H         1.0       0.5246275502079841  0.5516853704308283  0.6577894536641667 1.0000   
         H         H         1.0       0.396911512648337   0.6256222146592334  0.7449922850569246 1.0000   
         H         H         1.0       0.3431127645682887  0.5863461516553158  0.7475156895539139 1.0000   
         H         H         1.0       0.4161152347722031  0.4951591844656514  0.7632353380977372 1.0000   
         H         H         1.0       0.46861275096032806           0.5350746004865122 0.7635849166652682 1.0000   
         H         H         1.0       0.5482437057115624  0.6195146232789046  0.7850623296821222 1.0000   
         H         H         1.0       0.5564942128768328  0.6533006938506063  0.831365210110688  1.0000   
         H         H         1.0       0.4366879008624062  0.658138404802433   0.8417614658108628 1.0000   
         H         H         1.0       0.4285386574067953  0.6255472317728159  0.7962452994545854 1.0000   
         C         C         1.0       0.8629824148193527  0.3716584215051873  0.46976025141311095          1.0000   
         C         C         1.0       0.8409513616468662  0.40256802373728356           0.47499853462230945          1.0000   
         C         C         1.0       0.802343941284339   0.40094920755534896           0.47566763416839886          1.0000   
         C         C         1.0       0.7857217365716398  0.366846303989512   0.47113777474228247          1.0000   
         C         C         1.0       0.8077631992780323  0.3351705324921085  0.46791953838865347          1.0000   
         C         C         1.0       0.8458140768244635  0.33922789816236437           0.46675585467686653          1.0000   
         H         H         1.0       0.8515798516239906  0.43014848293664243           0.4755061640243129 1.0000   
         H         H         1.0       0.7872895939159973  0.42535076507000286           0.4817642485717585 1.0000   
         H         H         1.0       0.7935421654394932  0.309155838182622   0.4651824352286093 1.0000   
         H         H         1.0       0.8603288640660373  0.31505297609802696           0.4598334093196001 1.0000   
         C         C         1.0       0.7439565570909813  0.3395707007253103  0.4093503460467477 1.0000   
         C         C         1.0       0.7253188241923305  0.34062151214147246           0.43794836124255376          1.0000   
         C         C         1.0       0.6874932281375523  0.33357215158241366           0.4379843406168729 1.0000   
         C         C         1.0       0.6691620951564107  0.3249233439402187  0.41018283481093404          1.0000   
         C         C         1.0       0.6885876532213321  0.3239112525217516  0.3831277134978713 1.0000   
         C         C         1.0       0.7272016020425021  0.32814344937089074           0.38225594467220225          1.0000   
         C         C         1.0       0.7402432243253695  0.36273241533472234           0.4676099645737471 1.0000   
         C         C         1.0       0.7174621482222218  0.400864179107522   0.46442255285773565          1.0000   
         C         C         1.0       0.6866634663816733  0.4104966672111456  0.48184568534767586          1.0000   
         C         C         1.0       0.6638387539744679  0.43821465518231345           0.47369747240640503          1.0000   
         C         C         1.0       0.6683692047205609  0.4567069293363903  0.4464210929540261 1.0000   
         C         C         1.0       0.6996033185732538  0.4510148154482041  0.4295098148722485 1.0000   
         C         C         1.0       0.7239774284101393  0.4229312510513401  0.43764584267561013          1.0000   
         C         C         1.0       0.713296223875701   0.3097507608295586  0.502049807821164  1.0000   
         C         C         1.0       0.6855821149835172  0.3052034260552855  0.5240238362775647 1.0000   
         C         C         1.0       0.6791210857143022  0.33212922585776317           0.5469739807406666 1.0000   
         C         C         1.0       0.7117179526223814  0.3549284640880075  0.5529283437096506 1.0000   
         C         C         1.0       0.7358343426239803  0.3605090596024941  0.528791435317071  1.0000   
         C         C         1.0       0.7329718265093594  0.34203179301143366           0.5006156971376705 1.0000   
         C         C         1.0       0.6371059717801748  0.33705105678960795           0.559992917264282  1.0000   
         C         C         1.0       0.5535083073420769  0.29989665953156075           0.4897076530384358 1.0000   
         C         C         1.0       0.5511554550808051  0.28892972854903004           0.5205505287078495 1.0000   
         C         C         1.0       0.5761330725838826  0.2998028023836902  0.5429781839923026 1.0000   
         C         C         1.0       0.6055976991503395  0.32348858040308126           0.5359564939243282 1.0000   
         C         C         1.0       0.6088509221789723  0.33426993879602196           0.5055589112126159 1.0000   
         C         C         1.0       0.5820391900090306  0.3238416552989009  0.48300181258062164          1.0000   
         C         C         1.0       0.6269421686245332  0.37919447060721606           0.5686428210484424 1.0000   
         C         C         1.0       0.6505774359128889  0.39751477930119683           0.5910393951433058 1.0000   
         C         C         1.0       0.6479483869567045  0.4336788320615819  0.5951308048164498 1.0000   
         C         C         1.0       0.619583884429102   0.4529661382137711  0.5821406223056659 1.0000   
         C         C         1.0       0.5931210172020009  0.43362803650525417           0.5642915537733794 1.0000   
         C         C         1.0       0.5977793692695169  0.3988308673476939  0.5552316414227826 1.0000   
         C         C         1.0       0.6089281299688224  0.3170929961590605  0.6117918635724401 1.0000   
         C         C         1.0       0.6047634727469919  0.2944601189845769  0.6368547052332643 1.0000   
         C         C         1.0       0.6247694803217552  0.2612475506045281  0.6388905153605681 1.0000   
         C         C         1.0       0.6509297629311105  0.25402210962789956           0.6176984945070774 1.0000   
         C         C         1.0       0.6589913489866752  0.2787333469766767  0.594972120697021  1.0000   
         C         C         1.0       0.635428941782959   0.3104842121435497  0.588850078235254  1.0000   
         H         H         1.0       0.7717170891605897  0.3510411727516273  0.4076273532817971 1.0000   
         H         H         1.0       0.6700698121274934  0.3400251546690273  0.4572647209849903 1.0000   
         H         H         1.0       0.6384545639722286  0.32308635392431756           0.4089728559843488 1.0000   
         H         H         1.0       0.740210031225769   0.3305905384279336  0.3608660942143668 1.0000   
         H         H         1.0       0.67736410327449    0.39515048140963765           0.5023534329986074 1.0000   
         H         H         1.0       0.6431036230439473  0.44309885264074733           0.4919604571725921 1.0000   
         H         H         1.0       0.7030859055634464  0.4676626092142428  0.40936021791974037          1.0000   
         H         H         1.0       0.7434611216632558  0.4142422328748594  0.42047595427987533          1.0000   
         H         H         1.0       0.7143648682558162  0.2859636656392651  0.485358277963283  1.0000   
         H         H         1.0       0.6657000489646887  0.28390007968185477           0.5198277255637699 1.0000   
         H         H         1.0       0.7129274141695969  0.3746111976005604  0.5728008380515954 1.0000   
         H         H         1.0       0.7523498784220898  0.38602250870833765           0.530148929892804  1.0000   
         H         H         1.0       0.5291512592932971  0.2700144444473163  0.5268865272981492 1.0000   
         H         H         1.0       0.5728144554998246  0.2858303026290603  0.5654095526983266 1.0000   
         H         H         1.0       0.6317015616207075  0.35118548511489345           0.5005066272157016 1.0000   
         H         H         1.0       0.584116510329683   0.3324381669555129  0.4611461401012217 1.0000   
         H         H         1.0       0.673586990176693   0.38325445811486386           0.6023377399086899 1.0000   
         H         H         1.0       0.6697202519388533  0.44682445694915757           0.608171532377255  1.0000   
         H         H         1.0       0.5693928162484477  0.4475834356539898  0.5548161552670814 1.0000   
         H         H         1.0       0.5731476123225722  0.3839110105032347  0.5448199648810766 1.0000   
         H         H         1.0       0.5890172555049661  0.3386927262964723  0.6094599471463896 1.0000   
         H         H         1.0       0.5816100807600559  0.2975158116341754  0.6525562423177325 1.0000   
         H         H         1.0       0.6694905886896734  0.23100757865102337           0.6197753729286699 1.0000   
         H         H         1.0       0.6799808307766498  0.2673172644830518  0.5778511112825913 1.0000   
         C         C         1.0       0.5024123714336483  0.3406795270688808  0.8268392570089657 1.0000   
         C         C         1.0       0.5355762727668847  0.321557308271236   0.8273913922215058 1.0000   
         C         C         1.0       0.5619594047474391  0.3285673969534898  0.8069956257108389 1.0000   
         C         C         1.0       0.5606583605150919  0.3569546939564816  0.7870420720849376 1.0000   
         C         C         1.0       0.5276136670653319  0.3775582923328309  0.7867086081198253 1.0000   
         C         C         1.0       0.4995715394036431  0.36880136688561166           0.805533616159835  1.0000   
         H         H         1.0       0.5415114463201602  0.3029370424884277  0.8457545050740143 1.0000   
         H         H         1.0       0.5864020087884321  0.31040674953962355           0.8065935069319514 1.0000   
         H         H         1.0       0.525652169041437   0.3993597217291425  0.7699380045830971 1.0000   
         H         H         1.0       0.4756677664955631  0.38761548289640546           0.8068714667611501 1.0000   
         C         C         1.0       0.5511371506823703  0.39482920912213637           0.7178234950895671 1.0000   
         C         C         1.0       0.5857128184252631  0.3903951836610975  0.7320955120106248 1.0000   
         C         C         1.0       0.6146952860076988  0.41205916959187766           0.7213814869686901 1.0000   
         C         C         1.0       0.6089769628709613  0.440132713092599   0.7018334706931899 1.0000   
         C         C         1.0       0.5728582220253728  0.4452826694203922  0.6909699273104245 1.0000   
         C         C         1.0       0.5433345934465413  0.42129303180708305           0.696935905842112  1.0000   
         C         C         1.0       0.5932375297284616  0.36458697369936593           0.7626395958285531 1.0000   
         C         C         1.0       0.6037184979464406  0.3284814278462876  0.7463317575004641 1.0000   
         C         C         1.0       0.6391104612268578  0.324586592735423   0.7350724527783328 1.0000   
         C         C         1.0       0.6490993474720642  0.295047144463189   0.7172829766439407 1.0000   
         C         C         1.0       0.6223616929736454  0.2684474999870107  0.7110877465488323 1.0000   
         C         C         1.0       0.5855416815065998  0.2734586909595189  0.7187994457398997 1.0000   
         C         C         1.0       0.5762699221445653  0.30456282418919206           0.7352419396954106 1.0000   
         C         C         1.0       0.6173377937903876  0.4188789650712663  0.794500145980203  1.0000   
         C         C         1.0       0.6444029747323106  0.43868949022987014           0.8093623293129173 1.0000   
         C         C         1.0       0.6778542616864672  0.4206108182713133  0.8189272033558018 1.0000   
         C         C         1.0       0.6790252814804367  0.38319875852705565           0.8155167770134121 1.0000   
         C         C         1.0       0.6533500859929243  0.36565114580457386           0.7991979097794871 1.0000   
         C         C         1.0       0.6233276074545142  0.3835715134612471  0.7858335262841643 1.0000   
         C         C         1.0       0.7132224476300992  0.4431801415408254  0.8338721409089956 1.0000   
         C         C         1.0       0.7734410821052972  0.42926395112035004           0.7496198450027939 1.0000   
         C         C         1.0       0.7458176234326372  0.4554305318889348  0.7527472425574416 1.0000   
         C         C         1.0       0.7304894085378455  0.4620776027351261  0.7796085275563557 1.0000   
         C         C         1.0       0.7404927060818137  0.4427755441576453  0.806382849504395  1.0000   
         C         C         1.0       0.7706724331835335  0.41987413847656524           0.8039278461953562 1.0000   
         C         C         1.0       0.7866635170774815  0.412428869592541   0.7752650217644292 1.0000   
         C         C         1.0       0.7344930926257318  0.4277999590430699  0.8633577929094891 1.0000   
         C         C         1.0       0.7268442332231689  0.3963810327423539  0.8783633992185214 1.0000   
         C         C         1.0       0.7478909075753593  0.3848947066348249  0.9032960109782601 1.0000   
         C         C         1.0       0.7759841908670225  0.40597169886967205           0.9160142963571551 1.0000   
         C         C         1.0       0.7837365954720836  0.4363929676807577  0.9023025179125844 1.0000   
         C         C         1.0       0.7642910961162634  0.44799059309126166           0.8750840979990767 1.0000   
         C         C         1.0       0.70542314277258    0.5135903205916812  0.8366821119799556 1.0000   
         C         C         1.0       0.6814494470430357  0.5418839371713738  0.8428963640251987 1.0000   
         C         C         1.0       0.6509535682726483  0.538815361313162   0.8611778009473108 1.0000   
         C         C         1.0       0.6463002431026366  0.5064118876746442  0.8762360120552282 1.0000   
         C         C         1.0       0.6694071807786607  0.478061500192867   0.8707571854258417 1.0000   
         C         C         1.0       0.6979857929622101  0.4796951854291193  0.8482446265577768 1.0000   
         H         H         1.0       0.5275927555107006  0.38000385538923076           0.7257561918044075 1.0000   
         H         H         1.0       0.6417848858422324  0.40432218543777715           0.7289528030586442 1.0000   
         H         H         1.0       0.6305490210006807  0.4568070756968459  0.6917268441458413 1.0000   
         H         H         1.0       0.5142086648401287  0.427927046235232   0.6939925824206348 1.0000   
         H         H         1.0       0.6586252977833015  0.34468890123797646           0.7423568042193265 1.0000   
         H         H         1.0       0.6752963616849799  0.2939690631365661  0.7080152961829564 1.0000   
         H         H         1.0       0.5605166786610283  0.2566797216700542  0.7138970196794036 1.0000   
         H         H         1.0       0.5467086457224406  0.310885516595832   0.7364751100701875 1.0000   
         H         H         1.0       0.5904097954877332  0.43240072985458483           0.786642494464368  1.0000   
         H         H         1.0       0.6397440989356712  0.46858874790279276           0.8149461953373217 1.0000   
         H         H         1.0       0.7051250695586162  0.3678881103197245  0.8229544122193458 1.0000   
         H         H         1.0       0.6573567688765031  0.33616774211378875           0.798431281638553  1.0000   
         H         H         1.0       0.7352776514276493  0.47112045787629375           0.7342328158316624 1.0000   
         H         H         1.0       0.7033392818411561  0.4774476684368824  0.7794904846924008 1.0000   
         H         H         1.0       0.7781517314577197  0.40000462245071033           0.8222275103128018 1.0000   
         H         H         1.0       0.8120445756625004  0.39626993015369155           0.7748564828697946 1.0000   
         H         H         1.0       0.7047712903358885  0.3765318139424319  0.8704669270105192 1.0000   
         H         H         1.0       0.7420787597299588  0.35828637664749075           0.9120255773537825 1.0000   
         H         H         1.0       0.8068304574606988  0.4542306098791237  0.9102070526973188 1.0000   
         H         H         1.0       0.7718024660390966  0.4741538380233273  0.8649745271398529 1.0000   
         H         H         1.0       0.7258003235741297  0.5171045924294814  0.8196747801718296 1.0000   
         H         H         1.0       0.6876146286669921  0.5689913409976418  0.834789282869496  1.0000   
         H         H         1.0       0.6190870834840744  0.5026333834618326  0.8886596889242804 1.0000   
         H         H         1.0       0.6626544492538279  0.4525086391496124  0.8822526326379532 1.0000   
         C         C         1.0       0.2544298753709017  0.20274063950303792           0.7249852232886734 1.0000   
         C         C         1.0       0.264013480005317   0.20481137916237907           0.7557774219644887 1.0000   
         C         C         1.0       0.2565523785526811  0.234157389310921   0.7731113021868433 1.0000   
         C         C         1.0       0.23041358412222232           0.26017588727964663          0.7625482529911011 1.0000   
         C         C         1.0       0.21761369115247736           0.25534470655774   0.733150665078352  1.0000   
         C         C         1.0       0.23120452127100524           0.23007946613722224          0.7136998182456531 1.0000   
         H         H         1.0       0.28398726804142865           0.18275864910006565          0.7633505129893764 1.0000   
         H         H         1.0       0.2672180358158922  0.2348601221395363  0.7963690423268628 1.0000   
         H         H         1.0       0.1976819501008417  0.27524168298681223           0.7218024596481334 1.0000   
         H         H         1.0       0.2190113173020625  0.22620881080773111           0.6908571353231487 1.0000   
         C         C         1.0       0.27770235533209087           0.3009168906657364 0.8203122354703678 1.0000   
         C         C         1.0       0.2574380799214175  0.30947271568694024           0.7926983296946818 1.0000   
         C         C         1.0       0.27671970017362457           0.32989614592922095          0.7718835103941556 1.0000   
         C         C         1.0       0.3125129012097     0.3447365550717574  0.7784285724578209 1.0000   
         C         C         1.0       0.3310916858953351  0.33547448377303823           0.8055309686957903 1.0000   
         C         C         1.0       0.3142671494252399  0.3119044210508448  0.8261197426199298 1.0000   
         C         C         1.0       0.2177098151360013  0.29398738353864967           0.7842796546164097 1.0000   
         C         C         1.0       0.1950256163591606  0.28661498444012284           0.8152745130481435 1.0000   
         C         C         1.0       0.19388302921583223           0.31160925942828116          0.8385451044915713 1.0000   
         C         C         1.0       0.17037526474966613           0.307128755699006  0.8633562650057258 1.0000   
         C         C         1.0       0.14641463943251454           0.27675240228151743          0.8631954232156336 1.0000   
         C         C         1.0       0.14956250983134606           0.24986600080712962          0.8404216389999578 1.0000   
         C         C         1.0       0.1747527951520759  0.25377420563100334           0.8166836717864422 1.0000   
         C         C         1.0       0.19247812797081898           0.35857051505877824          0.7650827572349138 1.0000   
         C         C         1.0       0.1640545860032261  0.38082185409914804           0.7555368818748625 1.0000   
         C         C         1.0       0.1302659798077921  0.3665575212100277  0.7446899935204536 1.0000   
         C         C         1.0       0.12589517088254443           0.3283523967642173 0.7470401326280849 1.0000   
         C         C         1.0       0.15288246082443946           0.30709483106433777          0.7599080150302816 1.0000   
         C         C         1.0       0.18773243496135894           0.3209885394204713 0.7679285990383363 1.0000   
         C         C         1.0       0.09621692977052287           0.3906327833337512 0.7342509069641935 1.0000   
         C         C         1.0       0.05827290121102524           0.41434899915706797          0.8291777568046269 1.0000   
         C         C         1.0       0.08303993754584837           0.4387306328913308 0.81450322516279   1.0000   
         C         C         1.0       0.09333835097498833           0.43214927051835156          0.7855056620718965 1.0000   
         C         C         1.0       0.08114012917566216           0.40282036931802245          0.7681198704318482 1.0000   
         C         C         1.0       0.05733856034613738           0.3773340123153945 0.7823103839963357 1.0000   
         C         C         1.0       0.04719108510134706           0.3831073425552747 0.8128769796701112 1.0000   
         C         C         1.0       0.0694374158467097  0.37115390258450626           0.7085382774443421 1.0000   
         C         C         1.0       0.08610271741777265           0.3523824556991291 0.6832137589215309 1.0000   
         C         C         1.0       0.06460665729060411           0.3351541591162585 0.6616301136068289 1.0000   
         C         C         1.0       0.02528936076075139           0.3361568672033585 0.6640798047825107 1.0000   
         C         C         1.0       0.009433271604802007          0.3561090490851837 0.6866291261371157 1.0000   
         C         C         1.0       0.032303749166889606          0.3733710298871748 0.7085896423585885 1.0000   
         C         C         1.0       0.08501861692258106           0.4562040130634304 0.7146488940053136 1.0000   
         C         C         1.0       0.09206970920674418           0.48786174312586955          0.7002650237713575 1.0000   
         C         C         1.0       0.1227016578073008  0.48892420650316754           0.6813477367326107 1.0000   
         C         C         1.0       0.14496239798251187           0.4587303757538644 0.6776528321432341 1.0000   
         C         C         1.0       0.13674524526875143           0.4279022557605712 0.6946334383504624 1.0000   
         C         C         1.0       0.1082373594778876  0.42633704721380083           0.7148331949741693 1.0000   
         H         H         1.0       0.2697001020709901  0.2806831514789879  0.8364402320812374 1.0000   
         H         H         1.0       0.26373209917701956           0.33270314589726563          0.7500371029062689 1.0000   
         H         H         1.0       0.32704557093811815           0.3590100663515016 0.761998320003123  1.0000   
         H         H         1.0       0.32599589958473196           0.30542946007142896          0.8476938275410634 1.0000   
         H         H         1.0       0.2049361779897716  0.3414550283567607  0.8383572033861558 1.0000   
         H         H         1.0       0.1717067612759955  0.32611054941772266           0.882346432787198  1.0000   
         H         H         1.0       0.1365889662945272  0.22288648965408706           0.841452397258965  1.0000   
         H         H         1.0       0.1806733146786576  0.23192969053546758           0.7999353803866449 1.0000   
         H         H         1.0       0.21896594583282702           0.3690697244512823 0.7741023445639552 1.0000   
         H         H         1.0       0.17055421931088444           0.4084392829885026 0.752439773159705  1.0000   
         H         H         1.0       0.10031354450344443           0.3135174512717911 0.7420329745557525 1.0000   
         H         H         1.0       0.14691061691199647           0.2790841545820849 0.7626080292255843 1.0000   
         H         H         1.0       0.09475506732271    0.4631094014261673  0.8270605204774651 1.0000   
         H         H         1.0       0.11152889351022366           0.45038325529425804          0.7742443963758063 1.0000   
         H         H         1.0       0.047486856381025344          0.3525797325510424 0.7706172023932938 1.0000   
         H         H         1.0       0.035956172554117094          0.36046804443566544          0.8260475307880821 1.0000   
         H         H         1.0       0.11702280864383896           0.3527648405000865 0.6799939256833046 1.0000   
         H         H         1.0       0.07725077042137007           0.31898355269367995          0.644504727707302  1.0000   
         H         H         1.0       0.9777560687931585  0.35344655863110497           0.6878803309559448 1.0000   
         H         H         1.0       0.020388549846339643          0.3912744609893523 0.7242147450675905 1.0000   
         H         H         1.0       0.06065230300914659           0.45552417056276795          0.729406020818691  1.0000   
         H         H         1.0       0.0764606344290173  0.5130464143805775  0.7039518572646731 1.0000   
         H         H         1.0       0.1679803155778045  0.4601065862769222  0.663228000594476  1.0000   
         H         H         1.0       0.15470864597297296           0.4039621871929765 0.6905940508796599 1.0000   
         C         C         1.0       0.10435110330674124           0.525786171482949  0.4623766511365362 1.0000   
         C         C         1.0       0.07423284528351815           0.501307067091638  0.46658776048766587          1.0000   
         C         C         1.0       0.07731734169633198           0.4740021544089481 0.48772155936854966          1.0000   
         C         C         1.0       0.11198949258646085           0.467002199371679  0.5030833175981013 1.0000   
         C         C         1.0       0.14178971937468865           0.4913420712428309 0.4981565728111042 1.0000   
         C         C         1.0       0.1364458248377478  0.5203710645801425  0.4788385626631049 1.0000   
         H         H         1.0       0.0479545030932913  0.5049902631883942  0.4550828655183637 1.0000   
         H         H         1.0       0.05314059420613848           0.4579292005818549 0.49331232534999564          1.0000   
         H         H         1.0       0.16971670983417964           0.4906270431912732 0.5105928242743862 1.0000   
         H         H         1.0       0.15735407481725594           0.5392855578789467 0.475826236454711  1.0000   
         C         C         1.0       0.07192257021287518           0.3875560940729493 0.5043151906698644 1.0000   
         C         C         1.0       0.08480445967601624           0.40589660240186803          0.5305364715707304 1.0000   
         C         C         1.0       0.07321462447607519           0.39400510747879647          0.5588575320453348 1.0000   
         C         C         1.0       0.04921644283717974           0.36528535644954535          0.5607144475428536 1.0000   
         C         C         1.0       0.03938688145612357           0.34518805834346533          0.534888187359182  1.0000   
         C         C         1.0       0.048875926864094144          0.35932776462680005          0.5064300534510502 1.0000   
         C         C         1.0       0.11447060602915737           0.4380660051278853 0.5295730757967648 1.0000   
         C         C         1.0       0.11208838128116771           0.4650408090250913 0.5587163617014876 1.0000   
         C         C         1.0       0.1442824662254234  0.4793751397320927  0.572633200245697  1.0000   
         C         C         1.0       0.14343787016529677           0.5035608953057596 0.5970248946196209 1.0000   
         C         C         1.0       0.10799321139970885           0.5105921925653361 0.6092802933512486 1.0000   
         C         C         1.0       0.07539502573392598           0.4989427032658437 0.5943565744428615 1.0000   
         C         C         1.0       0.07889626706371833           0.4779442118065291 0.5688479651511685 1.0000   
         C         C         1.0       0.1686311603216597  0.407190061171445   0.5013061713236926 1.0000   
         C         C         1.0       0.19681828388415967           0.38109112779571286          0.49891820402023546          1.0000   
         C         C         1.0       0.2060633010581694  0.3593766616770534  0.5240614956320596 1.0000   
         C         C         1.0       0.1870096043494336  0.3660686230676066  0.5506857997130405 1.0000   
         C         C         1.0       0.16441655221389384           0.3955597193594751 0.5541608483130654 1.0000   
         C         C         1.0       0.15086597581903627           0.4137813982070449 0.5284914668569194 1.0000   
         C         C         1.0       0.231718149909735   0.3228766788610607  0.5190219918594358 1.0000   
         C         C         1.0       0.2862807759541133  0.2736589562049747  0.6023651272403665 1.0000   
         C         C         1.0       0.28197837955474037           0.3102370507825139 0.6000900980815527 1.0000   
         C         C         1.0       0.26235551346760577           0.32434754324929   0.5754347958196204 1.0000   
         C         C         1.0       0.2450287867329374  0.3029819595083729  0.5523205942795951 1.0000   
         C         C         1.0       0.247732133157962   0.2652387419270793  0.5578093145502724 1.0000   
         C         C         1.0       0.26817962456622274           0.2529989039592604 0.5810489290658124 1.0000   
         C         C         1.0       0.2718489382192196  0.32646279640904086           0.5059725347559919 1.0000   
         C         C         1.0       0.29464606304594976           0.35743329848694144          0.5086787495622797 1.0000   
         C         C         1.0       0.3323291024681632  0.35483684229959483           0.5020615865218625 1.0000   
         C         C         1.0       0.34715749609690194           0.32241337370052625          0.49231250473555804          1.0000   
         C         C         1.0       0.32446081032237845           0.2924470351069253 0.4874877711400135 1.0000   
         C         C         1.0       0.28724383750479915           0.29470089372114044          0.4930469361293964 1.0000   
         C         C         1.0       0.1733404563436738  0.2777882420743771  0.5142972509236305 1.0000   
         C         C         1.0       0.14671850662665212           0.26026689253621255          0.49615767915706166          1.0000   
         C         C         1.0       0.14507569315167812           0.2651924104188185 0.4643786376642033 1.0000   
         C         C         1.0       0.1755203876225626  0.2819646160233347  0.449709648517105  1.0000   
         C         C         1.0       0.2033334700431555  0.295977774119929   0.4675403878799406 1.0000   
         C         C         1.0       0.20251515787527863           0.2965931809073296 0.49986738729559055          1.0000   
         H         H         1.0       0.08018783100868898           0.39509649743473585          0.48192475555940045          1.0000   
         H         H         1.0       0.07740983970985305           0.40960606549652273          0.5791229535201322 1.0000   
         H         H         1.0       0.04125749379160948           0.3559330499870941 0.5831338212458216 1.0000   
         H         H         1.0       0.03653401179697968           0.34456895952378647          0.48621671603377514          1.0000   
         H         H         1.0       0.17231501119234927           0.4736759336045675 0.5628987756718701 1.0000   
         H         H         1.0       0.16898146765981553           0.5152807028424142 0.6097991658890517 1.0000   
         H         H         1.0       0.0479831650671414  0.5046220793160351  0.6012835672174152 1.0000   
         H         H         1.0       0.05533918055545484           0.4698941102845023 0.5543135472958419 1.0000   
         H         H         1.0       0.16218293840236275           0.42202751778958686          0.48163495438535164          1.0000   
         H         H         1.0       0.21186019850313564           0.3775958897946163 0.47649812282319787          1.0000   
         H         H         1.0       0.18755044013385347           0.3471247490616443 0.5691262843964646 1.0000   
         H         H         1.0       0.15228082308475455           0.3983608128328993 0.5764769090781404 1.0000   
         H         H         1.0       0.2897090814865203  0.3297784766507796  0.6187453681317544 1.0000   
         H         H         1.0       0.2649364825929435  0.35380059114762424           0.5722703930848262 1.0000   
         H         H         1.0       0.23816220391848616           0.24716243090280263          0.5399061211364727 1.0000   
         H         H         1.0       0.26788470408645304           0.22372692466239247          0.5834557678183427 1.0000   
         H         H         1.0       0.28537981485918573           0.38366687783424896          0.5158372772457606 1.0000   
         H         H         1.0       0.3527303066610294  0.37696091556916295           0.5032780825335542 1.0000   
         H         H         1.0       0.33435994317870477           0.2650863565263807 0.48090612725951126          1.0000   
         H         H         1.0       0.26950392211954033           0.27102683707804975          0.48521692598145655          1.0000   
         H         H         1.0       0.17162305244390072           0.2746056775204421 0.5403188004848279 1.0000   
         H         H         1.0       0.12055983848680668           0.24726933745126345          0.5049076454228619 1.0000   
         H         H         1.0       0.180239491762896   0.28189684514943936           0.4251826060624659 1.0000   
         H         H         1.0       0.22543972584244254           0.31012258072997373          0.4560016716420448 1.0000   
         C         C         1.0       0.07362544506844126           0.9733425523966059 0.6975402961256847 1.0000   
         C         C         1.0       0.09439256771207043           0.9973943393843409 0.7153632138951465 1.0000   
         C         C         1.0       0.11192019519907838           0.9844138365680629 0.7416371023568908 1.0000   
         C         C         1.0       0.1099283936720227  0.948325707434171   0.750655194347914  1.0000   
         C         C         1.0       0.09059203551948564           0.9244063615554197 0.7296833129353699 1.0000   
         C         C         1.0       0.07241610341431204           0.9373140477292481 0.7045592724985035 1.0000   
         H         H         1.0       0.09374412272570021           0.024381885865942143         0.7120610796181417 1.0000   
         H         H         1.0       0.12198245170506093           0.005364848747070994         0.7565761168836007 1.0000   
         H         H         1.0       0.0902646424608193  0.8949192385607606  0.7312976997788494 1.0000   
         H         H         1.0       0.06219263070850234           0.9162563127737083 0.6879464844613675 1.0000   
         C         C         1.0       0.05966498217895765           0.9153558531003019 0.8001975878775823 1.0000   
         C         C         1.0       0.09708679580117625           0.905330255026004  0.7988492965575598 1.0000   
         C         C         1.0       0.1091357345926323  0.8765362567605788  0.8168988628432208 1.0000   
         C         C         1.0       0.08465958999035106           0.8557264305573168 0.8336884030129916 1.0000   
         C         C         1.0       0.04666222722988666           0.8649217829447834 0.8328957638274342 1.0000   
         C         C         1.0       0.034231836712509844          0.8944996008526912 0.8148452988354868 1.0000   
         C         C         1.0       0.1259781922383666  0.9320043740319836  0.782522434008774  1.0000   
         C         C         1.0       0.13562588073798468           0.9620780587689722 0.8100371218303118 1.0000   
         C         C         1.0       0.16446760441419583           0.9536389793075394 0.8295203585044061 1.0000   
         C         C         1.0       0.1717010488070295  0.9733423382346257  0.8562064560972525 1.0000   
         C         C         1.0       0.15029388536769442           0.002249697596875322         0.8638149720840124 1.0000   
         C         C         1.0       0.12068822824240452           0.011174034193840887         0.8434875639765035 1.0000   
         C         C         1.0       0.11118898391254911           0.9911166187041894 0.817375306731967  1.0000   
         C         C         1.0       0.1623822799555659  0.8776740072555343  0.759807784518303  1.0000   
         C         C         1.0       0.19342162156656756           0.8596891234893785 0.7491568124507025 1.0000   
         C         C         1.0       0.22661242750436575           0.8783698841659697 0.7461243028886357 1.0000   
         C         C         1.0       0.22727303577178218           0.9155223466372627 0.7546868227051132 1.0000   
         C         C         1.0       0.19432749651398512           0.9329026260834897 0.7650098693077605 1.0000   
         C         C         1.0       0.16278803588036503           0.9129571178976326 0.7694652343685832 1.0000   
         C         C         1.0       0.2621647921852478  0.8551568801595677  0.7337734834489843 1.0000   
         C         C         1.0       0.30618512075334126           0.7918271168025907 0.8138936599116328 1.0000   
         C         C         1.0       0.28052603942692295           0.7768894840105921 0.7931009610243512 1.0000   
         C         C         1.0       0.26454737468199485           0.7957299061695859 0.768772719878947  1.0000   
         C         C         1.0       0.27270027432585203           0.8326401493386717 0.7641074866642975 1.0000   
         C         C         1.0       0.2932609176420629  0.8496024843489248  0.7889046492248737 1.0000   
         C         C         1.0       0.31037609251228976           0.8283661022920579 0.8119875048641358 1.0000   
         C         C         1.0       0.30049243198967096           0.876668238371458  0.7255362169662565 1.0000   
         C         C         1.0       0.29578509037005696           0.9110668811570686 0.710303297684921  1.0000   
         C         C         1.0       0.3272317271843808  0.933703550313181   0.7086434706288304 1.0000   
         C         C         1.0       0.36308668339229283           0.9214504181846641 0.7178337380740868 1.0000   
         C         C         1.0       0.3676334928733604  0.885879005939203   0.7253631804292047 1.0000   
         C         C         1.0       0.33805656958458236           0.8646588971014273 0.7313115272097338 1.0000   
         C         C         1.0       0.2746539204530041  0.8014363161234687  0.6949795495313115 1.0000   
         C         C         1.0       0.264229448776738   0.780220711926003   0.6704604148012042 1.0000   
         C         C         1.0       0.23172365118595203           0.7882664664274504 0.6531906341066269 1.0000   
         C         C         1.0       0.21133743740737598           0.8194640128312521 0.661483581480206  1.0000   
         C         C         1.0       0.22328492581661352           0.8413920171635066 0.6852596843660818 1.0000   
         C         C         1.0       0.25387911480027986           0.8320206919939919 0.7038376391562899 1.0000   
         H         H         1.0       0.05345709632616468           0.936952530328575  0.7841913146624988 1.0000   
         H         H         1.0       0.13888586210143347           0.8712682008587868 0.8200784485965701 1.0000   
         H         H         1.0       0.09514781351115383           0.8310998138122206 0.8459137407797187 1.0000   
         H         H         1.0       0.004035211272542583          0.9002273310621272 0.8080059004782651 1.0000   
         H         H         1.0       0.18515280241101514           0.9322940236288207 0.8246261622038336 1.0000   
         H         H         1.0       0.1926051584955756  0.963307831489988   0.8711218836444768 1.0000   
         H         H         1.0       0.10409608318120653           0.034623244477230086         0.8509729433430546 1.0000   
         H         H         1.0       0.08628460257204185           0.9956584394370609 0.804773280867824  1.0000   
         H         H         1.0       0.13668630059433862           0.8605767833870318 0.7621074117365124 1.0000   
         H         H         1.0       0.19146287899305273           0.8300350581910201 0.7470341004007827 1.0000   
         H         H         1.0       0.2528459042899708  0.9308575146682028  0.755368998675757  1.0000   
         H         H         1.0       0.19435533958077708           0.9635311152734266 0.7700125502535817 1.0000   
         H         H         1.0       0.2762694282233119  0.7465806456683821  0.7938646319227903 1.0000   
         H         H         1.0       0.24502365172000412           0.7819660829050589 0.7518579156319338 1.0000   
         H         H         1.0       0.298075782516449   0.8787286501808268  0.7889428031709756 1.0000   
         H         H         1.0       0.32739461873580306           0.8439274113600242 0.8284171249627731 1.0000   
         H         H         1.0       0.26849446161714385           0.9227007497577034 0.7025410660611844 1.0000   
         H         H         1.0       0.32436674399797394           0.9600283988355203 0.6969173867926586 1.0000   
         H         H         1.0       0.394858558570024   0.8746558825842964  0.7337921972658374 1.0000   
         H         H         1.0       0.342449750097008   0.8381970692718279  0.7407116120328492 1.0000   
         H         H         1.0       0.2954956705778829  0.7918425742233126  0.710190785011076  1.0000   
         H         H         1.0       0.2758710387480104  0.7531473852464807  0.66805377548193   1.0000   
         H         H         1.0       0.18666048972573027           0.8272651051703425 0.6469600971961251 1.0000   
         H         H         1.0       0.20887525217875824           0.8672205247964543 0.689214677098453  1.0000   
         C         C         1.0       0.331384713238408   0.8200175584750494  0.4438346113243428 1.0000   
         C         C         1.0       0.30263022902823683           0.796063291564716  0.4494682487739949 1.0000   
         C         C         1.0       0.2762681956555645  0.8051718584883177  0.4702049344178587 1.0000   
         C         C         1.0       0.27840976275163026           0.8376201840423946 0.4877267016676801 1.0000   
         C         C         1.0       0.3080004762008735  0.860941191010629   0.48188566106768604          1.0000   
         C         C         1.0       0.3337302060509413  0.8525053836166093  0.4600500426340098 1.0000   
         H         H         1.0       0.29923587406000174           0.7715948606461568 0.43547753504760295          1.0000   
         H         H         1.0       0.2526589417319924  0.7881805572712408  0.47458100544818776          1.0000   
         H         H         1.0       0.31522376769024163           0.8852841048737775 0.4939373797106403 1.0000   
         H         H         1.0       0.35433972774257033           0.8725609729539893 0.45550913485869504          1.0000   
         C         C         1.0       0.2925188707856544  0.8714243134539338  0.5554646373182288 1.0000   
         C         C         1.0       0.2626853819947169  0.8814895299052194  0.5346381164635101 1.0000   
         C         C         1.0       0.2467639894145271  0.9160622506270933  0.5405599415652642 1.0000   
         C         C         1.0       0.259524950099495   0.9352791696119503  0.5651904197586696 1.0000   
         C         C         1.0       0.28718311174907823           0.9235763019873782 0.5848995103660574 1.0000   
         C         C         1.0       0.30457824182354226           0.8916332008357623 0.5797422499870105 1.0000   
         C         C         1.0       0.24649852339162934           0.8537895322768527 0.510245952749352  1.0000   
         C         C         1.0       0.22457335793930305           0.8264384269262706 0.532782342011885  1.0000   
         C         C         1.0       0.19474270141212258           0.8390324272678084 0.5502504421063193 1.0000   
         C         C         1.0       0.18145960181215334           0.8202488096847164 0.573088379667239  1.0000   
         C         C         1.0       0.1974026423409314  0.7874646541143805  0.5792198660261517 1.0000   
         C         C         1.0       0.2247494708394179  0.7729644723715218  0.5618009771256739 1.0000   
         C         C         1.0       0.23973411868325006           0.793587643047423  0.5391198675050544 1.0000   
         C         C         1.0       0.22488730589874079           0.9037146667591816 0.46990036518644485          1.0000   
         C         C         1.0       0.1963060670603469  0.9234780814123443  0.4589532068205203 1.0000   
         C         C         1.0       0.16046062560472502           0.912703601431012  0.4590012846946017 1.0000   
         C         C         1.0       0.15450030560828504           0.8786161502481847 0.47062901725255385          1.0000   
         C         C         1.0       0.18384125907352147           0.8561669084524823 0.48149362571600074          1.0000   
         C         C         1.0       0.21811254458100574           0.8713847344867716 0.48606854480233846          1.0000   
         C         C         1.0       0.12563041545967657           0.9415189714681318 0.4576068957025338 1.0000   
         C         C         1.0       0.11837967392549646           0.9759515825588054 0.5540293438281045 1.0000   
         C         C         1.0       0.14842043390145485           0.9863944958922208 0.536008471685626  1.0000   
         C         C         1.0       0.1534751487255207  0.9745318217386151  0.5067598049000731 1.0000   
         C         C         1.0       0.12486482851445384           0.9531993126603303 0.49303808847949215          1.0000   
         C         C         1.0       0.09669003690726082           0.9398789026245135 0.513374188547607  1.0000   
         C         C         1.0       0.09423101390957639           0.9505192901679684 0.5430686525496004 1.0000   
         C         C         1.0       0.08640354184071887           0.9265077392901838 0.4433967446990983 1.0000   
         C         C         1.0       0.08505632143860775           0.8935997992531408 0.4268867145991463 1.0000   
         C         C         1.0       0.05229811814366725           0.8783836271078183 0.4155894937164778 1.0000   
         C         C         1.0       0.02002873730769239           0.897882128341592  0.4205340148237163 1.0000   
         C         C         1.0       0.020021173233495615          0.9309706138777983 0.4356929581531376 1.0000   
         C         C         1.0       0.05332581287660476           0.9458992497104117 0.4467243359453251 1.0000   
         C         C         1.0       0.12788251586687235           0.012503580259604297         0.4429982962170088 1.0000   
         C         C         1.0       0.1399264862408973  0.039306292862115066         0.4238465304171498 1.0000   
         C         C         1.0       0.1535889279542572  0.03184526408675836           0.394630132347824  1.0000   
         C         C         1.0       0.15490851195650843           0.9953754036368668 0.38619222890236793          1.0000   
         C         C         1.0       0.14289628838823068           0.9674896766868091 0.4053249033942103 1.0000   
         C         C         1.0       0.1307920812586839  0.9759999323594771  0.43612490690237504          1.0000   
         H         H         1.0       0.3071424749632752  0.84432670330024    0.5518534686338664 1.0000   
         H         H         1.0       0.2221779557314373  0.923858352571993   0.5279293579843677 1.0000   
         H         H         1.0       0.24327806029094073           0.9585181381196832 0.5711679045815542 1.0000   
         H         H         1.0       0.3269640364185922  0.8824440786897111  0.5934936392383453 1.0000   
         H         H         1.0       0.18445516977247298           0.8677411790032833 0.548042383845797  1.0000   
         H         H         1.0       0.15883343457515567           0.8318534420672568 0.5851816650553181 1.0000   
         H         H         1.0       0.23440780973733594           0.7455349878822402 0.5664048418802792 1.0000   
         H         H         1.0       0.2605670423126994  0.7824454474897989  0.5248561762564158 1.0000   
         H         H         1.0       0.25296698189927713           0.9151347138420373 0.47131549217174595          1.0000   
         H         H         1.0       0.20144224933474064           0.9502168808825094 0.44914417572887494          1.0000   
         H         H         1.0       0.12578616076573945           0.869029836229989  0.473200825067357  1.0000   
         H         H         1.0       0.17386913057736406           0.832915502948309  0.49323297479679107          1.0000   
         H         H         1.0       0.16885027128987487           0.00605349055560267          0.5419609824659389 1.0000   
         H         H         1.0       0.17798701348294627           0.9822404076632085 0.4930277423573727 1.0000   
         H         H         1.0       0.0734091745363079  0.9192777378715558  0.507845594584883  1.0000   
         H         H         1.0       0.07323717128955698           0.9401485939112693 0.5576960458113338 1.0000   
         H         H         1.0       0.10871262480197197           0.8783696742925643 0.4218181084839689 1.0000   
         H         H         1.0       0.05233801160888984           0.851840909927417  0.4020810639953403 1.0000   
         H         H         1.0       0.9956150678379077  0.9461402148148038  0.43838786842185257          1.0000   
         H         H         1.0       0.05669866005570045           0.9695768170030048 0.4583463984392355 1.0000   
         H         H         1.0       0.11566366184410752           0.021587716039760174         0.46328160016383974          1.0000   
         H         H         1.0       0.13513296576555445           0.0679018255054411 0.42962349079285145          1.0000   
         H         H         1.0       0.16760849337099085           0.9866849720490352 0.36415533427182617          1.0000   
         H         H         1.0       0.1485283824465887  0.939665386390654   0.3982048889789588 1.0000   
         C         C         1.0       0.0003886420237237953         0.2619796768563929 0.6904489267522484 1.0000   
         C         C         1.0       0.023093164249184506          0.23949711789169648          0.7086429758049827 1.0000   
         C         C         1.0       0.012725643744793791          0.2284343558988307 0.7376439539444082 1.0000   
         C         C         1.0       0.976770527134283   0.23370406144978487           0.7476140451717909 1.0000   
         C         C         1.0       0.9525120609326312  0.2551391747193858  0.727020853019346  1.0000   
         C         C         1.0       0.9655432684810228  0.2688382301817513  0.7003258735869233 1.0000   
         H         H         1.0       0.051159385705668914          0.23446518940581504          0.7010178272183469 1.0000   
         H         H         1.0       0.03359970249067046           0.21167280191363716          0.7508298458859677 1.0000   
         H         H         1.0       0.9242013121895147  0.2613746521910508  0.732614131363714  1.0000   
         H         H         1.0       0.9470516972594561  0.28624965242623834           0.6873633965262861 1.0000   
         C         C         1.0       0.9475304399608578  0.28534706036785873           0.7991349504460769 1.0000   
         C         C         1.0       0.9356505252367147  0.24840195882874763           0.7949889921973234 1.0000   
         C         C         1.0       0.9008312077383048  0.24098336951657776           0.8061059808934019 1.0000   
         C         C         1.0       0.877158941203512   0.265504561658164   0.817138503096929  1.0000   
         C         C         1.0       0.890519127437019   0.30249212639218365           0.820739756838837  1.0000   
         C         C         1.0       0.9254414821374513  0.3124440125243337  0.8101463406824773 1.0000   
         C         C         1.0       0.9620846265901595  0.2192938458204646  0.7807244983813725 1.0000   
         C         C         1.0       0.9885854842532656  0.21414754085861845           0.8095023191791296 1.0000   
         C         C         1.0       0.9772554548093392  0.19740638070589478           0.8365179766460175 1.0000   
         C         C         1.0       0.0024766301164653726         0.18087701659523625          0.8564861349759813 1.0000   
         C         C         1.0       0.039316179266692286          0.18588109619448723          0.8538860565945392 1.0000   
         C         C         1.0       0.05179344975597644           0.2071226016226532 0.8296661885246958 1.0000   
         C         C         1.0       0.02690781224191663           0.2238497647028455 0.8097110765890059 1.0000   
         C         C         1.0       0.9118229809954552  0.17550219735761852           0.7539770119560122 1.0000   
         C         C         1.0       0.8992575941023848  0.14246175250588977           0.7435591245472406 1.0000   
         C         C         1.0       0.9210042929375785  0.11157921289259343           0.7463794297703727 1.0000   
         C         C         1.0       0.9537404387291925  0.11503332286614132           0.7623499342795269 1.0000   
         C         C         1.0       0.9675650249952301  0.14771224966571328           0.7731638447833816 1.0000   
         C         C         1.0       0.9461905177292861  0.1799700223792664  0.769403941454369  1.0000   
         C         C         1.0       0.9058405660691834  0.07037527964542245           0.7374445370166609 1.0000   
         C         C         1.0       0.863546784605658   0.03538295697841787           0.8264808339243569 1.0000   
         C         C         1.0       0.8433877415911823  0.06041087182603766           0.8087647252851863 1.0000   
         C         C         1.0       0.8585183809131014  0.07184692726290898           0.7818856983301861 1.0000   
         C         C         1.0       0.8936264381898756  0.059820673848927974         0.7719882577683215 1.0000   
         C         C         1.0       0.91560934746418    0.03948856005259138           0.7926966822700737 1.0000   
         C         C         1.0       0.9010753927059055  0.02494640952282623           0.8193689396089668 1.0000   
         C         C         1.0       0.9382208145501069  0.04702673098973542           0.7214706078817046 1.0000   
         C         C         1.0       0.9604095341308232  0.06256494087708919           0.6997798329638479 1.0000   
         C         C         1.0       0.9870795946369159  0.0419566916500651  0.6846810914100255 1.0000   
         C         C         1.0       0.985941464575567   0.004262112575912358         0.6857670507446368 1.0000   
         C         C         1.0       0.9621994804290058  0.9875021473151246  0.7058551939269355 1.0000   
         C         C         1.0       0.9367058902237384  0.00941820079084743           0.7234893275537809 1.0000   
         C         C         1.0       0.8447352869088771  0.04257378726888472           0.7148962907325636 1.0000   
         C         C         1.0       0.8180434344689257  0.04087081995878483           0.6929896667026649 1.0000   
         C         C         1.0       0.8188630211255306  0.06229114239539468           0.6670210423150537 1.0000   
         C         C         1.0       0.8481585335812352  0.08586037237319744           0.6641925999644911 1.0000   
         C         C         1.0       0.8734596213017017  0.09054695915248123           0.6874019431131276 1.0000   
         C         C         1.0       0.8719119355014329  0.06819524389663578           0.7137459092602296 1.0000   
         H         H         1.0       0.9760372812543048  0.29311724150626806           0.7975339892125541 1.0000   
         H         H         1.0       0.8885177254766552  0.2129945177607051  0.8052799011814943 1.0000   
         H         H         1.0       0.8484825634042646  0.2588660306277064  0.822853333766517  1.0000   
         H         H         1.0       0.9375056676150321  0.34039164959958407           0.8139422705516458 1.0000   
         H         H         1.0       0.9473316687521752  0.1903252887630078  0.8407431382218128 1.0000   
         H         H         1.0       0.991815459538534   0.16125098055337617           0.8745203052398914 1.0000   
         H         H         1.0       0.0813905203256935  0.2067943688614475  0.8223099593692814 1.0000   
         H         H         1.0       0.04043678139432827           0.2382133422312273 0.7913167462348055 1.0000   
         H         H         1.0       0.8972349917840741  0.2009679343942628  0.7510840271539523 1.0000   
         H         H         1.0       0.8710100214490518  0.14370505598432115           0.7344345442605421 1.0000   
         H         H         1.0       0.967862970313362   0.08741867356314148           0.7651143881836363 1.0000   
         H         H         1.0       0.9931984975822898  0.14865050277648084           0.785789471186754  1.0000   
         H         H         1.0       0.8156565006214781  0.07045383584144482           0.8130775815122973 1.0000   
         H         H         1.0       0.8409345913423174  0.08668819890853019           0.7671554972486218 1.0000   
         H         H         1.0       0.9448976804528656  0.031197433537546004         0.7875634430562591 1.0000   
         H         H         1.0       0.919319555298726   0.00886528520917218           0.8334460715690708 1.0000   
         H         H         1.0       0.9583759745712522  0.09033910281590352           0.696422471729087  1.0000   
         H         H         1.0       0.0036820745069710004         0.05671508082298238          0.6668239502804358 1.0000   
         H         H         1.0       0.959464173710202   0.9571181673649403  0.7084228412403213 1.0000   
         H         H         1.0       0.91719218278788    0.9960426151637718  0.7388850422443154 1.0000   
         H         H         1.0       0.8426183569726132  0.026090434148783315         0.7358114830841529 1.0000   
         H         H         1.0       0.7968318111466569  0.021835725517430626         0.6995152921931543 1.0000   
         H         H         1.0       0.8519851266196267  0.10092781883171287           0.6434655388985181 1.0000   
         H         H         1.0       0.8989268357830646  0.10688979130076115           0.6856167617320972 1.0000   
         C         C         1.0       0.9192404158179571  0.9218541391551913  0.4960490219565381 1.0000   
         C         C         1.0       0.9022735154776176  0.9514853326441594  0.4836705681870198 1.0000   
         C         C         1.0       0.90624779970711    0.985167971493448   0.4976915865771924 1.0000   
         C         C         1.0       0.9289496440018993  0.9915547259811085  0.522900379984028  1.0000   
         C         C         1.0       0.9452142268717332  0.960175643065522   0.5356826658967813 1.0000   
         C         C         1.0       0.9442810312195377  0.9255869448892955  0.5206276071673747 1.0000   
         H         H         1.0       0.8855590283135015  0.950444490322227   0.46245570781352247          1.0000   
         H         H         1.0       0.8875552403924502  0.009587826134974442         0.4903283717392298 1.0000   
         H         H         1.0       0.9618577283903454  0.961377511380164   0.556451165188283  1.0000   
         H         H         1.0       0.9646251084122608  0.9053435472475788  0.5275517934810067 1.0000   
         C         C         1.0       0.0021026300346620452         0.027103281005890656         0.5314037393976201 1.0000   
         C         C         1.0       0.973389644295585   0.03246293709228221           0.5517363092682678 1.0000   
         C         C         1.0       0.9844612190799712  0.044307455050250466         0.581374368859226  1.0000   
         C         C         1.0       0.0212040144429817  0.04439504636499292           0.5906124026358082 1.0000   
         C         C         1.0       0.05022886004121396           0.03426449765947037          0.57036898628557   1.0000   
         C         C         1.0       0.03992490249821268           0.027912565510087584         0.53936230118182   1.0000   
         C         C         1.0       0.9312445739302389  0.030952130538813405         0.5405990278122355 1.0000   
         C         C         1.0       0.8984017655738971  0.029007622384857212         0.5637458352351176 1.0000   
         C         C         1.0       0.9015721175183243  0.012278868103847485         0.5921054123202047 1.0000   
         C         C         1.0       0.8718703707382787  0.01173764655689924           0.6127689123008835 1.0000   
         C         C         1.0       0.837639411140839   0.024353103229286077         0.6022535457237902 1.0000   
         C         C         1.0       0.8315329619070019  0.03699748497383881           0.5732869184080677 1.0000   
         C         C         1.0       0.8622597730437757  0.03653586852350843           0.554669562800318  1.0000   
         C         C         1.0       0.9379026206539154  0.06870965193027101           0.48955866722979113          1.0000   
         C         C         1.0       0.9359476750739506  0.10042508899539437           0.4721277420025978 1.0000   
         C         C         1.0       0.9274682412810744  0.13349604349074173           0.48702868392570536          1.0000   
         C         C         1.0       0.9167708960149111  0.13100235731868892           0.5178254195534143 1.0000   
         C         C         1.0       0.9176769622112242  0.10014485921642291           0.5340912239578861 1.0000   
         C         C         1.0       0.927275686952267   0.06739210226774905           0.5196404868021699 1.0000   
         C         C         1.0       0.9281108983638461  0.17255704046621445           0.46874688462638103          1.0000   
         C         C         1.0       0.9597997307689612  0.2735105068694733  0.5196107382357362 1.0000   
         C         C         1.0       0.9692157249097813  0.24009072635397358           0.5305248852408954 1.0000   
         C         C         1.0       0.9601465801840593  0.20750217099632945           0.5153732144331868 1.0000   
         C         C         1.0       0.9375669661589593  0.20803997697215193           0.48884449407936476          1.0000   
         C         C         1.0       0.9255876719194449  0.24168494256111941           0.47972640797359906          1.0000   
         C         C         1.0       0.9374374793700938  0.27333216440015523           0.49433827514838685          1.0000   
         C         C         1.0       0.8853074512233352  0.1715516539977746  0.4566422658899018 1.0000   
         C         C         1.0       0.8772075172190937  0.1530823712744409  0.4289619931322916 1.0000   
         C         C         1.0       0.8458411534021453  0.16426003464849526           0.411621028041138  1.0000   
         C         C         1.0       0.8225948885329118  0.19108371649759825           0.42309188046116764          1.0000   
         C         C         1.0       0.8264781070873622  0.20251570976899858           0.45239762238762493          1.0000   
         C         C         1.0       0.8569212891264003  0.18960006626076756           0.4706931720981666 1.0000   
         C         C         1.0       0.00022566984206351393        0.16486010580239907          0.45726909616981276          1.0000   
         C         C         1.0       0.030557476497180103          0.16692012119996735          0.4376991759122735 1.0000   
         C         C         1.0       0.025189587007968806          0.1764858971395462 0.4063311439275301 1.0000   
         C         C         1.0       0.9899327468427039  0.18804620295364072           0.3961258354288555 1.0000   
         C         C         1.0       0.9605966949656142  0.18932341258377972           0.4171056771372269 1.0000   
         C         C         1.0       0.9644776341765068  0.17514518999996542           0.4477554016947649 1.0000   
         H         H         1.0       0.9960952537268748  0.0222262568196383  0.5077600197210612 1.0000   
         H         H         1.0       0.9645560579516447  0.05119877063092093           0.600684518439062  1.0000   
         H         H         1.0       0.02870193975422164           0.05458565647117264          0.6138709981354123 1.0000   
         H         H         1.0       0.058805968996396896          0.024317371668257648         0.5218847217406992 1.0000   
         H         H         1.0       0.9272315237739591  0.9976169154248773  0.5980035452996659 1.0000   
         H         H         1.0       0.8773750597132567  0.0015679655206943808        0.6347980546588398 1.0000   
         H         H         1.0       0.8049561840113808  0.042129235430302   0.5635453824169275 1.0000   
         H         H         1.0       0.858566614030826   0.04413121974314449           0.5309263410907265 1.0000   
         H         H         1.0       0.9461051247234319  0.043677426104491435         0.4783097281675175 1.0000   
         H         H         1.0       0.9453770765220837  0.09935693699792325           0.44821599410665464          1.0000   
         H         H         1.0       0.9022460238491843  0.15389275757318788           0.5262582919777031 1.0000   
         H         H         1.0       0.9118730787500752  0.10072290415827756           0.5587339594261732 1.0000   
         H         H         1.0       0.9919943324411387  0.23727674549777134           0.546513237681784  1.0000   
         H         H         1.0       0.9720143044430614  0.18107542424869763           0.5248301667626606 1.0000   
         H         H         1.0       0.9097535637004609  0.2449218098797821  0.45787343620696536          1.0000   
         H         H         1.0       0.9296429279520484  0.2973485167945069  0.4829727690341475 1.0000   
         H         H         1.0       0.8975618693831908  0.13640433489735626           0.41889066593397   1.0000   
         H         H         1.0       0.8427209572436974  0.15194243389200235           0.3891209078387386 1.0000   
         H         H         1.0       0.80502952048091    0.21722681649284448           0.4632409929979145 1.0000   
         H         H         1.0       0.8596080636751652  0.19632078799512145           0.4945966880767329 1.0000   
         H         H         1.0       0.007625773793081381          0.1607121187968159 0.48088057113607596          1.0000   
         H         H         1.0       0.05921813908933715           0.15944390045146428          0.4465032056160479 1.0000   
         H         H         1.0       0.9836954135142542  0.1935012397882394  0.37211560214742545          1.0000   
         H         H         1.0       0.9350090036466087  0.2021579139889873  0.41093197558415606          1.0000   
         C         C         1.0       0.3807192681402019  0.9980638991054357  0.7548743829407749 1.0000   
         C         C         1.0       0.35102318069803345           0.022012928534010046         0.7576809749766428 1.0000   
         C         C         1.0       0.3406471477746267  0.036486782374506976         0.7850879436720926 1.0000   
         C         C         1.0       0.3622780444319422  0.03451125041099479           0.8116047561172557 1.0000   
         C         C         1.0       0.3922248409356045  0.010102548713915914         0.8089943317411586 1.0000   
         C         C         1.0       0.4028066450183204  0.9945939751168419  0.7814988025919738 1.0000   
         H         H         1.0       0.3358363952787465  0.03305940609708502           0.7368560984707313 1.0000   
         H         H         1.0       0.323140992762904   0.06024167728439766           0.7829784890511339 1.0000   
         H         H         1.0       0.4129547364536726  0.006411320899509799         0.8292225303862676 1.0000   
         H         H         1.0       0.4297798251007085  0.9848818320885178  0.7784220926577061 1.0000   
         C         C         1.0       0.3672608605372542  0.011369711419832118         0.8811518807172194 1.0000   
         C         C         1.0       0.3794507358715924  0.04488499215460329           0.8718198766698421 1.0000   
         C         C         1.0       0.4077599440261534  0.0628251129718993  0.8890485273425284 1.0000   
         C         C         1.0       0.42343811199806686           0.044966465018796864         0.9135663737663374 1.0000   
         C         C         1.0       0.4094899028056034  0.011925322682319274         0.9244240778660476 1.0000   
         C         C         1.0       0.3815955226034723  0.9949317761923582  0.9076341949833384 1.0000   
         C         C         1.0       0.36007669623601485           0.06288665527770965          0.8409258858464024 1.0000   
         C         C         1.0       0.3205285793223219  0.07572099543247579           0.8542024246242518 1.0000   
         C         C         1.0       0.32301951086967884           0.10493526714857437          0.8745371803408631 1.0000   
         C         C         1.0       0.29261677343533005           0.1259229874924264 0.8791127288676341 1.0000   
         C         C         1.0       0.25887392622987354           0.12271960807657586          0.864236751959065  1.0000   
         C         C         1.0       0.2576501354197233  0.09394389720994711           0.8427993376781885 1.0000   
         C         C         1.0       0.28669375605857816           0.06878235190414284          0.8389943934208465 1.0000   
         C         C         1.0       0.42032147928772245           0.09572562660878114          0.820106445834489  1.0000   
         C         C         1.0       0.4375363945955443  0.12370041902273388           0.8041242233771868 1.0000   
         C         C         1.0       0.4146831959351258  0.15016366671568193           0.7896334274088421 1.0000   
         C         C         1.0       0.3770047205772473  0.15225131520641072           0.7969198409087513 1.0000   
         C         C         1.0       0.36247084924422374           0.12515599092276844          0.8139102572924889 1.0000   
         C         C         1.0       0.38170046666406077           0.09623137778180313          0.8258054718135678 1.0000   
         C         C         1.0       0.4320711096181023  0.17804082956746403           0.7656351843187229 1.0000   
         C         C         1.0       0.4549863334612224  0.26499415901613826           0.8334144590356208 1.0000   
         C         C         1.0       0.48103712425769574           0.23916338052525943          0.8266265830930227 1.0000   
         C         C         1.0       0.4746952043708153  0.21317941399499943           0.8031876417453527 1.0000   
         C         C         1.0       0.4397391972061455  0.21077162973581534           0.7891335447094552 1.0000   
         C         C         1.0       0.41314517706869414           0.23431391766599263          0.7988447425609235 1.0000   
         C         C         1.0       0.418545891891327   0.26090229873263787           0.8208495743733615 1.0000   
         C         C         1.0       0.40353505193063666           0.18313645378532994          0.7373269275519956 1.0000   
         C         C         1.0       0.3865723605654126  0.1512723436113337  0.7229983910975843 1.0000   
         C         C         1.0       0.3556643991355884  0.15295585313958981           0.7036990713719691 1.0000   
         C         C         1.0       0.3412050404596683  0.1853752347037292  0.6968374555255382 1.0000   
         C         C         1.0       0.3585267997706391  0.21769322431065027           0.7071545895125004 1.0000   
         C         C         1.0       0.388793772217262   0.21799514417403804           0.7280818044035666 1.0000   
         C         C         1.0       0.4887066494366357  0.1961135717158768  0.7309298822325587 1.0000   
         C         C         1.0       0.5206761839441261  0.18600909103462762           0.7150286865113578 1.0000   
         C         C         1.0       0.5275576234666931  0.1497412357954619  0.7088055500027477 1.0000   
         C         C         1.0       0.506243765769487   0.12368280497078583           0.7221485744820219 1.0000   
         C         C         1.0       0.47784039381226745           0.13279496961454781          0.7401205444843363 1.0000   
         C         C         1.0       0.4670880026242525  0.16921244644614872           0.7453296234401914 1.0000   
         H         H         1.0       0.3437346197424989  1.3739871034034678e-05       0.8674503367085744 1.0000   
         H         H         1.0       0.4208983942004159  0.08731163891544336           0.8824464119737482 1.0000   
         H         H         1.0       0.45161722360893064           0.05547626910594361          0.9236396240055005 1.0000   
         H         H         1.0       0.371498933819061   0.9700959761352722  0.9148140295156578 1.0000   
         H         H         1.0       0.3513332356343743  0.11481639967878712           0.8828154060032828 1.0000   
         H         H         1.0       0.29568253539405825           0.14666631716138784          0.8956376677665825 1.0000   
         H         H         1.0       0.23196633423666296           0.09061781513044398          0.8303947264015373 1.0000   
         H         H         1.0       0.284551011250702   0.04478942602845959           0.8240353656818493 1.0000   
         H         H         1.0       0.43685573258664523           0.07385011507097183          0.8279881208730464 1.0000   
         H         H         1.0       0.46604372010755235           0.122241900594441  0.7985223110264387 1.0000   
         H         H         1.0       0.35725063741928753           0.16835893358878037          0.7854607287042431 1.0000   
         H         H         1.0       0.3313927847795626  0.127566792092236   0.8148606075256942 1.0000   
         H         H         1.0       0.5077740721580852  0.24244662808797618           0.8376270704664311 1.0000   
         H         H         1.0       0.4975284344269249  0.19396139017921254           0.8008641650087488 1.0000   
         H         H         1.0       0.38546875882983533           0.23331610983626808          0.78860748814976   1.0000   
         H         H         1.0       0.3981167948274147  0.2774099420217524  0.8310317418357142 1.0000   
         H         H         1.0       0.3987774529793662  0.12634684363043538           0.7285003689125011 1.0000   
         H         H         1.0       0.3457346673527678  0.13064006909065118           0.6892778697770334 1.0000   
         H         H         1.0       0.34442228879565306           0.24195228996173337          0.7006051545872498 1.0000   
         H         H         1.0       0.3999686039449523  0.24382182381609582           0.7353729935751276 1.0000   
         H         H         1.0       0.48283233204345744           0.22492923586777044          0.7328888013222474 1.0000   
         H         H         1.0       0.5398512802235189  0.20538089613308025           0.7065110573147493 1.0000   
         H         H         1.0       0.5107667474663372  0.0943157034892863  0.7191281910316665 1.0000   
         H         H         1.0       0.4621352805366407  0.10960296240260191           0.7492856067113054 1.0000   
         C         C         1.0       0.5049702390940659  0.21986071335335458           0.48044637135351326          1.0000   
         C         C         1.0       0.5255576095011788  0.1978344801471248  0.5006398614943155 1.0000   
         C         C         1.0       0.5074794890487982  0.1810481432929175  0.5239197471163097 1.0000   
         C         C         1.0       0.47007624119970026           0.1830295418883378 0.528698137290572  1.0000   
         C         C         1.0       0.4494668623744143  0.20636500313819892           0.5083752317130596 1.0000   
         C         C         1.0       0.4673555362778644  0.2218530365072549  0.4832269363701519 1.0000   
         H         H         1.0       0.555235713821345   0.1990652322912648  0.5001866061012263 1.0000   
         H         H         1.0       0.5256999260605689  0.1647036398238851  0.5391657944690118 1.0000   
         H         H         1.0       0.41802265628123997           0.2054860026907675 0.5069945658993705 1.0000   
         H         H         1.0       0.45068949377610695           0.23824620505994518          0.4675232819687414 1.0000   
         C         C         1.0       0.4215627326417829  0.22866156018326858           0.572015305396664  1.0000   
         C         C         1.0       0.4184793400118634  0.1910417627662695  0.573296726306895  1.0000   
         C         C         1.0       0.3882613358877131  0.176616087609395   0.5891882696149792 1.0000   
         C         C         1.0       0.3661174877672861  0.19837533760592468           0.6063652187727089 1.0000   
         C         C         1.0       0.37220003556790254           0.23543983016703046          0.6064987104256764 1.0000   
         C         C         1.0       0.4002959706880063  0.25010937593840826           0.5893317430096572 1.0000   
         C         C         1.0       0.44714326324865505           0.1653220888398181 0.5576757976172205 1.0000   
         C         C         1.0       0.47140601360506706           0.1564458127760149 0.5885293015155769 1.0000   
         C         C         1.0       0.4636880231575396  0.1255933154890527  0.6071483265594135 1.0000   
         C         C         1.0       0.48819312161987705           0.11693419575179548          0.6318838541734071 1.0000   
         C         C         1.0       0.521058591444853   0.1362864544354907  0.6377338670246585 1.0000   
         C         C         1.0       0.5255999681646792  0.16799280759683788           0.6215067654576537 1.0000   
         C         C         1.0       0.5019161104453671  0.17862355279197842           0.5978485503724253 1.0000   
         C         C         1.0       0.3945878289407518  0.13499013615066324           0.5222549352772339 1.0000   
         C         C         1.0       0.3749647509251801  0.10520640853066876           0.5109809383537665 1.0000   
         C         C         1.0       0.3916334882749546  0.0704753844758812  0.5085046645295149 1.0000   
         C         C         1.0       0.4269009824532414  0.06812654235010851           0.5229147920720179 1.0000   
         C         C         1.0       0.44664165592862953           0.0973716808249141 0.5373591731547301 1.0000   
         C         C         1.0       0.4287248041012513  0.13233015692651176           0.5388800485801504 1.0000   
         C         C         1.0       0.3686938191404529  0.03548184199737525           0.49512751270168837          1.0000   
         C         C         1.0       0.3493462639104425  0.983171754413778   0.58354967470432   1.0000   
         C         C         1.0       0.33178704594363445           0.01716277660909249          0.5769956583224668 1.0000   
         C         C         1.0       0.3382385199216275  0.0333816761516994  0.5493021179637652 1.0000   
         C         C         1.0       0.3597803484655533  0.01604136980451676           0.527445308999216  1.0000   
         C         C         1.0       0.37573855866074807           0.9826115193078448 0.5345336922749122 1.0000   
         C         C         1.0       0.36976951422351395           0.9661263928788135 0.5617382088703314 1.0000   
         C         C         1.0       0.3885381438118114  0.009769706087624952         0.471729945312385  1.0000   
         C         C         1.0       0.42336446084811274           0.013790663753469712         0.46064087021770056          1.0000   
         C         C         1.0       0.4403410328226908  0.9851046921850545  0.44696580746491893          1.0000   
         C         C         1.0       0.41944678452691186           0.955456799329     0.43791215287158675          1.0000   
         C         C         1.0       0.38273889204453515           0.9539427405863109 0.44491417682940465          1.0000   
         C         C         1.0       0.36699025892169285           0.9800887224023374 0.4626278513586271 1.0000   
         C         C         1.0       0.2969405597153577  0.05294285957700384           0.48936368050438456          1.0000   
         C         C         1.0       0.27161615317712595           0.07671075833526331          0.47666833173494394          1.0000   
         C         C         1.0       0.2812845286344231  0.09659588172628553           0.4514112518112675 1.0000   
         C         C         1.0       0.3125515158513265  0.08706271202442095           0.43505450095915316          1.0000   
         C         C         1.0       0.3398488702416503  0.06657442278714143           0.44891676800548896          1.0000   
         C         C         1.0       0.3331551407664206  0.050242266495063026         0.4774124482698401 1.0000   
         H         H         1.0       0.4441874422532294  0.23866424624443278           0.558484216011024  1.0000   
         H         H         1.0       0.3872418597311168  0.14817458961423977           0.5924354816283728 1.0000   
         H         H         1.0       0.3444720364253796  0.18640690765461024           0.6205297112896732 1.0000   
         H         H         1.0       0.4084940963193588  0.2789643486135317  0.5897075216387078 1.0000   
         H         H         1.0       0.44118362743069406           0.10768694662786042          0.5999436355084603 1.0000   
         H         H         1.0       0.4828898722561342  0.09136344241415495           0.6412518752642798 1.0000   
         H         H         1.0       0.5490173946435114  0.18620336535409432           0.625955052538969  1.0000   
         H         H         1.0       0.5094567230758899  0.20507784681662775           0.5864760040517224 1.0000   
         H         H         1.0       0.3789045142360903  0.16069394551510705           0.5215336735332509 1.0000   
         H         H         1.0       0.3468581537127603  0.1115238654184321  0.5009588357108461 1.0000   
         H         H         1.0       0.4399673006133963  0.04129981682257444           0.5227622063692988 1.0000   
         H         H         1.0       0.47628086856622553           0.09359034290376567          0.5478192468370069 1.0000   
         H         H         1.0       0.31172222061294574           0.03166702364414986          0.5910875182830049 1.0000   
         H         H         1.0       0.325538616634107   0.05986776894896772           0.5460925429526454 1.0000   
         H         H         1.0       0.39331353028697824           0.9648654124218189 0.5198313338933396 1.0000   
         H         H         1.0       0.3764643164342027  0.9385097645387712  0.5640037898796764 1.0000   
         H         H         1.0       0.4393075466631165  0.03790915400578698           0.4677519023045324 1.0000   
         H         H         1.0       0.46796222407006366           0.9847068347309269 0.4425938375399986 1.0000   
         H         H         1.0       0.3659631802544761  0.9310243697874612  0.43422613109199404          1.0000   
         H         H         1.0       0.337731400142899   0.9760928364876224  0.47030455233968743          1.0000   
         H         H         1.0       0.28574657329884245           0.038745595429098056         0.5082217548665877 1.0000   
         H         H         1.0       0.2459038687790195  0.07747484429443863           0.48818570367155095          1.0000   
         H         H         1.0       0.32131693632326724           0.10321103124877662          0.41541865266178546          1.0000   
         H         H         1.0       0.3653854387140455  0.06802370870465069           0.4353940314864272 1.0000   
         C         C         1.0       0.968885081755431   0.5369984415558042  0.3611548137139767 1.0000   
         C         C         1.0       0.9590505062564014  0.5260518902570372  0.33147800925358656          1.0000   
         C         C         1.0       0.9722098311318715  0.493666313977811   0.319996256853328  1.0000   
         C         C         1.0       0.0003842426041420488         0.4747311443761625 0.3369367843330736 1.0000   
         C         C         1.0       0.009554163876515531          0.48621007784461173          0.3650819173483651 1.0000   
         C         C         1.0       0.9928228962818364  0.515749472487644   0.37721844788543546          1.0000   
         H         H         1.0       0.9405474426430483  0.5422610667258131  0.31724420344566573          1.0000   
         H         H         1.0       0.9593593356303687  0.4831853408740596  0.30031348621191606          1.0000   
         H         H         1.0       0.024387737916429453          0.4699695415309375 0.38194885680879503          1.0000   
         H         H         1.0       0.9926992055087442  0.5207760506123409  0.4025658730915692 1.0000   
         C         C         1.0       0.08532033067599332           0.45422226012074884          0.32972838211246686          1.0000   
         C         C         1.0       0.05721391628594641           0.42848560931720775          0.32564828538470664          1.0000   
         C         C         1.0       0.07020534198422701           0.3909922464871506 0.3260845323260716 1.0000   
         C         C         1.0       0.10727917941759824           0.3833134085563759 0.3282599502109536 1.0000   
         C         C         1.0       0.13393601945990663           0.4101744750770756 0.33018604902840337          1.0000   
         C         C         1.0       0.12266819437333609           0.4456948380796132 0.32935468770787446          1.0000   
         C         C         1.0       0.013107243262486357          0.43829407666455306          0.3219833169656295 1.0000   
         C         C         1.0       0.01055998647687062           0.43420325964864415          0.28539153609227846          1.0000   
         C         C         1.0       0.0033013313180747517         0.40068959795113906          0.27211719774052573          1.0000   
         C         C         1.0       0.007252938995578884          0.39492382489621564          0.24075194336510472          1.0000   
         C         C         1.0       0.015442418059432805          0.4234083064189607 0.22263418619804592          1.0000   
         C         C         1.0       0.024093867241523403          0.45710128028610064          0.23473115013273363          1.0000   
         C         C         1.0       0.021769929530532917          0.4616431002857766 0.2660554834801946 1.0000   
         C         C         1.0       0.9992495796645365  0.3985607711360606  0.36969517557152276          1.0000   
         C         C         1.0       0.9834212468753227  0.36756801940658945           0.3809964795878629 1.0000   
         C         C         1.0       0.9559045767509708  0.34798084458869893           0.36507067527172443          1.0000   
         C         C         1.0       0.9378453879832923  0.3704791511723364  0.34331214025046364          1.0000   
         C         C         1.0       0.9519314402370805  0.40233478450383886           0.3323408778439223 1.0000   
         C         C         1.0       0.987612256484105   0.4112253887107191  0.3423568234697253 1.0000   
         C         C         1.0       0.9507875996493749  0.3052004334716391  0.3646182656794393 1.0000   
         C         C         1.0       0.9591385678735248  0.2848821424328487  0.26570831931103805          1.0000   
         C         C         1.0       0.9906723460743531  0.2939898176585842  0.28141717725492615          1.0000   
         C         C         1.0       0.989258056828078   0.2978431611486121  0.31281173860330025          1.0000   
         C         C         1.0       0.9548115659347196  0.29375088285136436           0.3288380774997059 1.0000   
         C         C         1.0       0.9227257591013742  0.2908688858725237  0.3106571155586144 1.0000   
         C         C         1.0       0.9251657222250892  0.2855195813836853  0.27905046260848093          1.0000   
         C         C         1.0       0.9101343246944988  0.2910582501281859  0.3771587859615287 1.0000   
         C         C         1.0       0.8823159502773695  0.3136599986244254  0.38624175469616023          1.0000   
         C         C         1.0       0.8471946495611137  0.30124109413593514           0.3903656898152523 1.0000   
         C         C         1.0       0.8400427417584884  0.2650216226928732  0.38897201665979964          1.0000   
         C         C         1.0       0.8672663642341172  0.24172985261797342           0.3796814873003141 1.0000   
         C         C         1.0       0.9021362088438152  0.2542770963022294  0.37395804621990975          1.0000   
         C         C         1.0       0.015684217948447543          0.2732295110364671 0.3765824767694773 1.0000   
         C         C         1.0       0.044423562571031194          0.2674177983746785 0.3962795558275781 1.0000   
         C         C         1.0       0.04019948273407348           0.2716713728491713 0.42773347261686995          1.0000   
         C         C         1.0       0.0075103179654512076         0.28532581039723764          0.4384153737506348 1.0000   
         C         C         1.0       0.978500967265556   0.2925675237311738  0.4184442012530468 1.0000   
         C         C         1.0       0.9820231136765606  0.28628633900572165           0.387477050172273  1.0000   
         H         H         1.0       0.07805291024001626           0.4841932495192356 0.33207383855271455          1.0000   
         H         H         1.0       0.04993623904866906           0.3702283786643819 0.32197644663445874          1.0000   
         H         H         1.0       0.1148827207532006  0.3548225506456684  0.32903739566568835          1.0000   
         H         H         1.0       0.14028662974193318           0.4692699697446108 0.3360587754346945 1.0000   
         H         H         1.0       0.001959205459475477          0.37826488056547264          0.28586959715121635          1.0000   
         H         H         1.0       0.0020638355394939634         0.3676778327103369 0.2299737081265879 1.0000   
         H         H         1.0       0.03390073130314031           0.480335420674203  0.2215727079503078 1.0000   
         H         H         1.0       0.03125456308488794           0.4873559897882041 0.2760207653627247 1.0000   
         H         H         1.0       0.02598878154566253           0.40686386446196493          0.3810942416166023 1.0000   
         H         H         1.0       0.9984675926833687  0.35683482703882674           0.40176654918116467          1.0000   
         H         H         1.0       0.9129287705953503  0.36046961605580125           0.33007235721318745          1.0000   
         H         H         1.0       0.9391591112124063  0.4136302345714389  0.31103915288949174          1.0000   
         H         H         1.0       0.017029340573192275          0.29682939958516463          0.2691129730425959 1.0000   
         H         H         1.0       0.012354121236967108          0.3096456274012164 0.32497920965149063          1.0000   
         H         H         1.0       0.894857572183871   0.29555338333047376           0.31982143655724876          1.0000   
         H         H         1.0       0.8992605361424925  0.2784340333822666  0.2655643095861239 1.0000   
         H         H         1.0       0.884296988547682   0.3437081403109289  0.38952716329523757          1.0000   
         H         H         1.0       0.8241382306405795  0.3171686830117028  0.39729968789023296          1.0000   
         H         H         1.0       0.8668613611012     0.21395417352212398           0.37326210469700855          1.0000   
         H         H         1.0       0.9202749626619532  0.23747225159909857           0.36125238621348227          1.0000   
         H         H         1.0       0.023590528172276803          0.26278028551671306          0.35522298048312245          1.0000   
         H         H         1.0       0.07059763928548857           0.26256436007264483          0.385257999971943  1.0000   
         H         H         1.0       0.0031083285139330563         0.2943563098208413 0.46250619232924406          1.0000   
         H         H         1.0       0.95214249927045    0.3004976107158755  0.4284823668816115 1.0000   
         C         C         1.0       0.9132959659900118  0.23139729386098593           0.022685104274482004         1.0000   
         C         C         1.0       0.9464868232707706  0.2284403926897249  0.009222867063321427         1.0000   
         C         C         1.0       0.9595993138199661  0.2538379525249687  0.9902787089589892 1.0000   
         C         C         1.0       0.9388445783469063  0.2844855171560652  0.9852735667089713 1.0000   
         C         C         1.0       0.9060154707675873  0.29087030758980303           0.0013751079756940676        1.0000   
         C         C         1.0       0.893728703124734   0.2641254950158378  0.01935928331961123          1.0000   
         H         H         1.0       0.9616014018058223  0.2027339072369433  0.008093023170980818         1.0000   
         H         H         1.0       0.9856903358825145  0.24585475722628644           0.9807383737271937 1.0000   
         H         H         1.0       0.8874310519577817  0.31314911068016343           0.9967202250824597 1.0000   
         H         H         1.0       0.8690799567222303  0.26790799970972035           0.03498937082393638          1.0000   
         C         C         1.0       0.8960601557490993  0.2900535655502699  0.9244472045337878 1.0000   
         C         C         1.0       0.9179543006161104  0.3194169134754725  0.9338646233777056 1.0000   
         C         C         1.0       0.913440239711717   0.35250189753605254           0.9193132341857426 1.0000   
         C         C         1.0       0.8874191092040401  0.35784311479880737           0.8976035559044566 1.0000   
         C         C         1.0       0.8657072068891801  0.3285659279015212  0.8868494898748464 1.0000   
         C         C         1.0       0.8720994597423254  0.2933901968573572  0.8978108576590524 1.0000   
         C         C         1.0       0.9508817418547403  0.3141023933118205  0.959226608689517  1.0000   
         C         C         1.0       0.9835145538650456  0.30602652250910567           0.9358300751327626 1.0000   
         C         C         1.0       0.004870221492743632          0.3359423337767546 0.9254163858322779 1.0000   
         C         C         1.0       0.030764481578999137          0.3313409006816187 0.9040690701788682 1.0000   
         C         C         1.0       0.042676687147067405          0.2967082854391942 0.8964122879019216 1.0000   
         C         C         1.0       0.02185976787300503           0.2668507896719946 0.9058968139205498 1.0000   
         C         C         1.0       0.9903262423649482  0.2722113517304767  0.922953170932213  1.0000   
         C         C         1.0       0.938158983737521   0.37642670131716977           0.9890335307182979 1.0000   
         C         C         1.0       0.9522605658604065  0.40594434826477055           0.0041033188459489445        1.0000   
         C         C         1.0       0.9893385568023053  0.40593663431942084           0.017465837348711544         1.0000   
         C         C         1.0       0.00865827410079345           0.3739116459312961 0.014332214790176101         1.0000   
         C         C         1.0       0.9950399468760331  0.34380179858795434           0.9981503219116455 1.0000   
         C         C         1.0       0.9605809347093247  0.3467783265904017  0.9835379736190105 1.0000   
         C         C         1.0       0.0054669327356633435         0.44073942957815426          0.03528662366304203          1.0000   
         C         C         1.0       0.9586771829749512  0.5377685211860507  0.9865661513227927 1.0000   
         C         C         1.0       0.9583298348259365  0.5362740409259386  0.018907826582510223         1.0000   
         C         C         1.0       0.974290690340113   0.5063565565241415  0.03310466125828504          1.0000   
         C         C         1.0       0.9884397038645605  0.4771442044721871  0.01784735777776647          1.0000   
         C         C         1.0       0.9889239443434201  0.4797079225068092  0.9855607430816298 1.0000   
         C         C         1.0       0.970211135781818   0.5078353484735331  0.9699418362066478 1.0000   
         C         C         1.0       0.050326578790590215          0.4447487516532196 0.036231090059870796         1.0000   
         C         C         1.0       0.07134554043502117           0.4203549474537289 0.05283341422544918          1.0000   
         C         C         1.0       0.10875129572607434           0.4122957462328002 0.046724884785504406         1.0000   
         C         C         1.0       0.1258915387248014  0.431284603513184   0.02460712890610184          1.0000   
         C         C         1.0       0.1100528980861386  0.4606353343658351  0.01015567977368148          1.0000   
         C         C         1.0       0.0717105135918994  0.4668613789712179  0.014847002461281678         1.0000   
         C         C         1.0       0.004198731670019384          0.4625001081128838 0.09275762413763688          1.0000   
         C         C         1.0       0.9976684372825614  0.4580023581492265  0.12400563134306662          1.0000   
         C         C         1.0       0.9826297665487216  0.42478761638933216           0.13388451136769544          1.0000   
         C         C         1.0       0.969302249776657   0.4010115826719115  0.11330164990754832          1.0000   
         C         C         1.0       0.9739538368237557  0.4064630859192631  0.08179987484157047          1.0000   
         C         C         1.0       0.9938659030253095  0.4367424560875746  0.06939434858157623          1.0000   
         H         H         1.0       0.9045070416599369  0.2643245008421806  0.9318260949334866 1.0000   
         H         H         1.0       0.9322677046317804  0.376065596370268   0.9260128339476035 1.0000   
         H         H         1.0       0.89070483757269    0.38049075848250513           0.8824586977014113 1.0000   
         H         H         1.0       0.8574003133983746  0.2704377064722823  0.8904226283227984 1.0000   
         H         H         1.0       0.9968373228701495  0.3631144048694422  0.9323504494574717 1.0000   
         H         H         1.0       0.04476167477396786           0.3549378633223852 0.8942717362128483 1.0000   
         H         H         1.0       0.03142537820180724           0.2406663067318021 0.9033944614713396 1.0000   
         H         H         1.0       0.9704086341964464  0.2504724250761212  0.9275267190550822 1.0000   
         H         H         1.0       0.9093785131686809  0.37725034085184395           0.9818591186928306 1.0000   
         H         H         1.0       0.9347161282130519  0.42990954226839984           0.005018633372580794         1.0000   
         H         H         1.0       0.03416862837527401           0.3732267690920833 0.027523188768694418         1.0000   
         H         H         1.0       0.012373704426599685          0.32122643160809894          0.9951885094342819 1.0000   
         H         H         1.0       0.9438349988101197  0.5559067279545246  0.032799600740489154         1.0000   
         H         H         1.0       0.9731192769358131  0.5087206412169333  0.05732404328267848          1.0000   
         H         H         1.0       0.9984785293224795  0.4572857428462803  0.9727517771186726 1.0000   
         H         H         1.0       0.9716779431847228  0.5117713367726048  0.9436301831634747 1.0000   
         H         H         1.0       0.05858521169858455           0.4062008670436015 0.07200501134536386          1.0000   
         H         H         1.0       0.12067246007387333           0.38990866258677115          0.058895694941682786         1.0000   
         H         H         1.0       0.12351267270150101           0.4817703358260653 0.9969587255311827 1.0000   
         H         H         1.0       0.06024115518665352           0.49159768227666467          0.004745088396867603         1.0000   
         H         H         1.0       0.018340827472812737          0.48814769057290847          0.08774285721599417          1.0000   
         H         H         1.0       0.005047777717855473          0.4789575249317394 0.1418924005040271 1.0000   
         H         H         1.0       0.9538127153104844  0.377292025773155   0.11952775158809681          1.0000   
         H         H         1.0       0.9658263550044356  0.38187591009574934           0.06763985444096354          1.0000   
         C         C         1.0       0.7758256830393988  0.07739740566519515           0.29359019544368453          1.0000   
         C         C         1.0       0.7878234301170112  0.05603049797613169           0.2696195150969204 1.0000   
         C         C         1.0       0.8169197101396133  0.06582452133171102           0.25199331695060717          1.0000   
         C         C         1.0       0.8371612726352946  0.0969256281247175  0.2583044960616449 1.0000   
         C         C         1.0       0.8262028155859393  0.11926826619860398           0.28274856449988994          1.0000   
         C         C         1.0       0.7953434228492278  0.10975537786366951           0.3002723266715763 1.0000   
         H         H         1.0       0.7712682013705591  0.03137052289453468           0.2628865342109933 1.0000   
         H         H         1.0       0.8254202411753679  0.04725076939701012           0.23371259038137754          1.0000   
         H         H         1.0       0.8361257817204907  0.14476465062047184           0.2881197988901271 1.0000   
         H         H         1.0       0.78586558447941    0.1254703203263392  0.3203341239822477 1.0000   
         C         C         1.0       0.8676109085101805  0.17556581591304377           0.23351177396362469          1.0000   
         C         C         1.0       0.8916875847687636  0.14627776689823557           0.23391100974800716          1.0000   
         C         C         1.0       0.9277058088047904  0.15338186715369861           0.22741548784852156          1.0000   
         C         C         1.0       0.9401617023952461  0.18862917659474743           0.2238472698074694 1.0000   
         C         C         1.0       0.9165540210895349  0.21714698713235836           0.22266952455489758          1.0000   
         C         C         1.0       0.8787228449970798  0.21046093832527735           0.22697338966077346          1.0000   
         C         C         1.0       0.875510020039472   0.10541402263857003           0.23966938485641318          1.0000   
         C         C         1.0       0.8690708505628937  0.09359770561877756           0.2049066325035169 1.0000   
         C         C         1.0       0.8982440635290214  0.0774789398156619  0.1892074176953229 1.0000   
         C         C         1.0       0.8925638356273489  0.06834687088093894           0.15820931698029161          1.0000   
         C         C         1.0       0.860037489777417   0.07529914501945689           0.1430354160922396 1.0000   
         C         C         1.0       0.8314029762162249  0.09343300212542305           0.1576396520304768 1.0000   
         C         C         1.0       0.8368255749807064  0.10036675830452468           0.18835464873803184          1.0000   
         C         C         1.0       0.9282492617522086  0.09907161986836632           0.283670184269485  1.0000   
         C         C         1.0       0.9554303141301721  0.07951200533498115           0.29728442915160486          1.0000   
         C         C         1.0       0.9573521253412407  0.04219010892790109           0.2969612731536326 1.0000   
         C         C         1.0       0.92971233210067    0.02568914242360787           0.27853469591625535          1.0000   
         C         C         1.0       0.9069652466427548  0.04475163799085102           0.2586777107051293 1.0000   
         C         C         1.0       0.9056889177109959  0.08375422662249576           0.26067248265140275          1.0000   
         C         C         1.0       0.9952518031637765  0.023433435218881415         0.30952927658361934          1.0000   
         C         C         1.0       0.041634408368949494          0.9924701678488491 0.21848306615019764          1.0000   
         C         C         1.0       0.045952054245225415          0.0270926375728886 0.22938044819211   1.0000   
         C         C         1.0       0.03311805267827505           0.03564974585420799          0.25753692087365343          1.0000   
         C         C         1.0       0.013652956911093028          0.011804024743837793         0.27668444962169436          1.0000   
         C         C         1.0       0.005874677098109737          0.9783628861742927 0.26278624097918485          1.0000   
         C         C         1.0       0.021613896065406646          0.9689747152338936 0.23622551828882296          1.0000   
         C         C         1.0       0.9888020903047353  0.9887355567091541  0.3306120859869693 1.0000   
         C         C         1.0       0.955524655914211   0.9827398901825414  0.34817346455375114          1.0000   
         C         C         1.0       0.9499903746422224  0.9503517012694916  0.3632656447141371 1.0000   
         C         C         1.0       0.9781557083598642  0.9244714432337674  0.36261613522142044          1.0000   
         C         C         1.0       0.012060080073353685          0.9310327175117399 0.3505089478728155 1.0000   
         C         C         1.0       0.01644057647114927           0.9631401144519898 0.33439615375587883          1.0000   
         C         C         1.0       0.05583678896923683           0.06059014639668292          0.326838419331818  1.0000   
         C         C         1.0       0.0729217497566994  0.09022487142650792           0.3417864917165145 1.0000   
         C         C         1.0       0.0579478724986755  0.10414703492449129           0.36689019143291673          1.0000   
         C         C         1.0       0.02437254510103193           0.08848594194843917          0.3767479388870421 1.0000   
         C         C         1.0       0.005705863173280479          0.06116445422242234          0.3606231791267924 1.0000   
         C         C         1.0       0.019661429685371212          0.04932311649619492          0.33247240940337397          1.0000   
         H         H         1.0       0.8407791675679662  0.1739512121759632  0.2419071034992024 1.0000   
         H         H         1.0       0.945917700554334   0.1301281645436858  0.22692292687439009          1.0000   
         H         H         1.0       0.9684363399811292  0.1960355597577974  0.2204779002013831 1.0000   
         H         H         1.0       0.8600824671382031  0.23371254124743812           0.22419114749697788          1.0000   
         H         H         1.0       0.9255709707717014  0.0717978081135151  0.20152436261184592          1.0000   
         H         H         1.0       0.917131122402322   0.05518298453648396           0.148673323480782  1.0000   
         H         H         1.0       0.8055251979622076  0.09983294086699512           0.14645297276706856          1.0000   
         H         H         1.0       0.8165076300443677  0.11301776228934801           0.2016031985119668 1.0000   
         H         H         1.0       0.9274728061115234  0.12810885700953434           0.28840888287071137          1.0000   
         H         H         1.0       0.9787839510321317  0.09685205546207798           0.3055365139500412 1.0000   
         H         H         1.0       0.9287177360111937  0.9955972901047282  0.27728955007752004          1.0000   
         H         H         1.0       0.8900213443990922  0.027555366567983297         0.24474948269674238          1.0000   
         H         H         1.0       0.05989385270195435           0.04986632774136668          0.2184577525398305 1.0000   
         H         H         1.0       0.03883666038467615           0.06240442670356372          0.26707341566119247          1.0000   
         H         H         1.0       0.9867343804299855  0.9593405881211398  0.2746329171114507 1.0000   
         H         H         1.0       0.014585916179287395          0.9417060627098731 0.2264277591537412 1.0000   
         H         H         1.0       0.934420973306459   0.0027983928691079907        0.35315550725780964          1.0000   
         H         H         1.0       0.9235878556509902  0.9459059277870209  0.3745668670075417 1.0000   
         H         H         1.0       0.03522479501567455           0.9103185795821809 0.35076808908706014          1.0000   
         H         H         1.0       0.04333827160765158           0.9671560852209182 0.3242414237095577 1.0000   
         H         H         1.0       0.07168487738703422           0.052010662829530485         0.30756795965841827          1.0000   
         H         H         1.0       0.09768390342125101           0.09910590860593227          0.3312402347575997 1.0000   
         H         H         1.0       0.010556005713971972          0.09708318548569972          0.39701484307080354          1.0000   
         H         H         1.0       0.9783190210107424  0.051058363925793326         0.3659214415256745 1.0000   
         C         C         1.0       0.0013070423656986647         0.9995078317904358 0.023735856302203207         1.0000   
         C         C         1.0       0.009807995169572871          0.031806609218256954         0.00872016412419696          1.0000   
         C         C         1.0       0.009457258788132084          0.034103570830153584         0.9772491529384371 1.0000   
         C         C         1.0       4.520144845976404e-05         0.0032686580795122655        0.9583875807543399 1.0000   
         C         C         1.0       0.9915515765942785  0.9710544054854561  0.9744034598200488 1.0000   
         C         C         1.0       0.9931436567438104  0.9695083935344031  0.005877799411921236         1.0000   
         H         H         1.0       0.015488263202821038          0.05588172143646375          0.02261082752502408          1.0000   
         H         H         1.0       0.01382028668495372           0.0602751715877623 0.9663045540883141 1.0000   
         H         H         1.0       0.9839329428972421  0.9467657247819631  0.9616331059576251 1.0000   
         H         H         1.0       0.9821219053136191  0.942372939918717   0.015093286482009471         1.0000   
         C         C         1.0       0.034617864843907935          0.9512969298427911 0.9108266049367303 1.0000   
         C         C         1.0       0.0017445878582742491         0.9700343360121949 0.9038994315997184 1.0000   
         C         C         1.0       0.9794713917427406  0.9524995798419094  0.882725755170113  1.0000   
         C         C         1.0       0.9815140654128742  0.915552723671249   0.8768437205025172 1.0000   
         C         C         1.0       0.011577886966972038          0.8969848658475704 0.8905064624574821 1.0000   
         C         C         1.0       0.038703565368495285          0.9136671150735791 0.905763302999491  1.0000   
         C         C         1.0       0.9921675207538246  0.006140086152919055         0.9220357683270629 1.0000   
         C         C         1.0       0.018911460673363134          0.0347482570374249 0.9038556330858025 1.0000   
         C         C         1.0       0.007701516372506267          0.04560688021613246          0.8737611966497013 1.0000   
         C         C         1.0       0.026055891388477637          0.0749658893308196 0.8604906449899841 1.0000   
         C         C         1.0       0.05601317186199384           0.09262491397338635          0.8747921544377372 1.0000   
         C         C         1.0       0.06829784457441668           0.07848485106976266          0.902477551416094  1.0000   
         C         C         1.0       0.05131775244815873           0.04943953111162003          0.9171799626628262 1.0000   
         C         C         1.0       0.9236035613735374  0.9903403344294802  0.9308666784014141 1.0000   
         C         C         1.0       0.887906207342232   0.9996039862969557  0.940811547506608  1.0000   
         C         C         1.0       0.8788841825269771  0.03649610571642081           0.9430305506370135 1.0000   
         C         C         1.0       0.90278738963126    0.06131019582564101           0.9288097762421011 1.0000   
         C         C         1.0       0.938220737379841   0.05227943653393963           0.92091951811993   1.0000   
         C         C         1.0       0.9490016543248585  0.016230209899552595         0.9233064099865832 1.0000   
         C         C         1.0       0.8468503722434875  0.04808008947472908           0.9653220591044699 1.0000   
         C         C         1.0       0.7483231565284654  0.021402420255756116         0.908738859817255  1.0000   
         C         C         1.0       0.7691165225047515  0.9960990358083253  0.925202722820123  1.0000   
         C         C         1.0       0.7990867404311768  0.0051069131484036134        0.9425916137103784 1.0000   
         C         C         1.0       0.8129821362062956  0.03989906179891167           0.9431184092553866 1.0000   
         C         C         1.0       0.7988684613565509  0.06257427596563292           0.9206077645032953 1.0000   
         C         C         1.0       0.7646425879964329  0.05624398960539989           0.9054989731772181 1.0000   
         C         C         1.0       0.8501502661440719  0.08870508969614188           0.9783551474352423 1.0000   
         C         C         1.0       0.8850506504745091  0.10324628877038222           0.986967188581698  1.0000   
         C         C         1.0       0.8892645491139762  0.13544349259618804           0.002034572902849252         1.0000   
         C         C         1.0       0.8583769886039525  0.1557447226223556  0.010091048553034554         1.0000   
         C         C         1.0       0.8230185313580521  0.14181756584520033           0.004461417163323045         1.0000   
         C         C         1.0       0.8201621095705308  0.10901226653773155           0.9889151623495404 1.0000   
         C         C         1.0       0.813092324480201   0.028776201122660883         0.0145989570082532 1.0000   
         C         C         1.0       0.8146599802190201  0.027568592179989526         0.04699111561979485          1.0000   
         C         C         1.0       0.8493066494384798  0.021642277503697738         0.061867433467975845         1.0000   
         C         C         1.0       0.8800866820802395  0.013430875658666963         0.04438176933174476          1.0000   
         C         C         1.0       0.877530501632282   0.017967538214630485         0.011965655326650504         1.0000   
         C         C         1.0       0.8442308133575537  0.029181493737000075         0.9974440715240448 1.0000   
         H         H         1.0       0.05161891818277353           0.9671649503405595 0.9271068400850485 1.0000   
         H         H         1.0       0.9545633616160295  0.9652995670399743  0.8734278135483935 1.0000   
         H         H         1.0       0.9612406384799181  0.9021856771842395  0.8618818668260357 1.0000   
         H         H         1.0       0.06204112915655568           0.8975771681426806 0.9144775975369516 1.0000   
         H         H         1.0       0.9825645928116151  0.033850750257672146         0.8630882521794674 1.0000   
         H         H         1.0       0.01526691218190157           0.08429714382099163          0.8370340860396145 1.0000   
         H         H         1.0       0.09223966013332636           0.0927193630731793 0.9140239483755018 1.0000   
         H         H         1.0       0.06319517711361011           0.038249043132847715         0.937932386024273  1.0000   
         H         H         1.0       0.9308934300780091  0.9610414024515092  0.9298074144257165 1.0000   
         H         H         1.0       0.8723856681376375  0.9768621214070846  0.9496065920396654 1.0000   
         H         H         1.0       0.8942055707248046  0.090871974242418   0.9265388461704763 1.0000   
         H         H         1.0       0.9602095637032626  0.07150009592539419           0.9126604374881944 1.0000   
         H         H         1.0       0.7576180508983837  0.9680597911445777  0.9252325725490821 1.0000   
         H         H         1.0       0.8102538702772017  0.9829806510105992  0.9565050340068042 1.0000   
         H         H         1.0       0.8128551118450211  0.0880124308001049  0.9175987827249565 1.0000   
         H         H         1.0       0.7501722573454118  0.07483986362596129           0.8905376123967076 1.0000   
         H         H         1.0       0.9097992029128902  0.08854917557035735           0.9832636408229045 1.0000   
         H         H         1.0       0.9169736399925067  0.1454284555291283  0.008935821098138064         1.0000   
         H         H         1.0       0.7991242530913149  0.15565319748688133           0.015083694509732792         1.0000   
         H         H         1.0       0.7935323594709223  0.09740846717759788           0.9853837401395755 1.0000   
         H         H         1.0       0.7871289714002558  0.03679128130826137           0.004672839169188814         1.0000   
         H         H         1.0       0.7910426114768923  0.03245894607052713           0.0623353974991121 1.0000   
         H         H         1.0       0.9089870232276569  0.008832374362693685         0.05168338052768773          1.0000   
         H         H         1.0       0.9028502704953174  0.01441052374010221           0.9984868487417622 1.0000   
         C         C         1.0       0.17196668672738824           0.8419009709731038 0.3519820867825902 1.0000   
         C         C         1.0       0.1810149275060311  0.8180384802317949  0.32885189128636905          1.0000   
         C         C         1.0       0.18419071313365912           0.8298301617073607 0.3008791940684299 1.0000   
         C         C         1.0       0.17488158024063893           0.8656351899551953 0.2928700019084849 1.0000   
         C         C         1.0       0.15766070786052727           0.8865253544508154 0.31553675708474327          1.0000   
         C         C         1.0       0.15758889851428445           0.8756577144191084 0.34588460928186165          1.0000   
         H         H         1.0       0.1940694792708566  0.7929633492273415  0.33595197341881866          1.0000   
         H         H         1.0       0.2009109499834876  0.8132711559692057  0.2859988845587848 1.0000   
         H         H         1.0       0.14466319901460598           0.9131884240428209 0.30966226075065323          1.0000   
         H         H         1.0       0.14468719491063636           0.8947611979043802 0.3621040596410015 1.0000   
         C         C         1.0       0.11517534589455927           0.8892440269804317 0.24425379601681235          1.0000   
         C         C         1.0       0.1529387046880926  0.901124827009028   0.24188652421407314          1.0000   
         C         C         1.0       0.1615453337262627  0.9244595458224893  0.21865208597240643          1.0000   
         C         C         1.0       0.13281477100078148           0.9419508754947692 0.20239479116126208          1.0000   
         C         C         1.0       0.09596981422109127           0.9297599435688807 0.20233223820324128          1.0000   
         C         C         1.0       0.08718528715982572           0.9027058354651923 0.22405080565832924          1.0000   
         C         C         1.0       0.185674742995268   0.8799403751088276  0.25856542000180116          1.0000   
         C         C         1.0       0.19288597716408273           0.8478164791938092 0.2329248610671135 1.0000   
         C         C         1.0       0.21833040168092518           0.8549381928697044 0.2100562036125003 1.0000   
         C         C         1.0       0.22233763080658872           0.8320190085594126 0.1861477350443668 1.0000   
         C         C         1.0       0.19714270814730217           0.8041785648529144 0.1797558934796163 1.0000   
         C         C         1.0       0.1685351849522946  0.7975329093273945  0.19984641111350754          1.0000   
         C         C         1.0       0.16749017240877231           0.8194615027488472 0.22598792998059364          1.0000   
         C         C         1.0       0.2134808013098501  0.9382118272164711  0.2802024067442693 1.0000   
         C         C         1.0       0.2397149410637553  0.9605167782235047  0.29272994766662974          1.0000   
         C         C         1.0       0.2768483637342657  0.9488439130044822  0.29435508611096023          1.0000   
         C         C         1.0       0.28500208051110143           0.9155997854927299 0.28017073574938456          1.0000   
         C         C         1.0       0.2572716432155833  0.8919645244909934  0.27055481195413883          1.0000   
         C         C         1.0       0.22095955924528365           0.9047952477662738 0.2680647535991857 1.0000   
         C         C         1.0       0.30734218735842345           0.9775146277823603 0.3097749482045269 1.0000   
         C         C         1.0       0.3277933329753045  0.03324913110182881           0.22152841255359287          1.0000   
         C         C         1.0       0.2978928421329518  0.04113195409448367           0.23846135324487658          1.0000   
         C         C         1.0       0.2920313378511888  0.026146556333218163         0.2655322048402173 1.0000   
         C         C         1.0       0.31670622202327375           0.9997640253953012 0.2791975514368624 1.0000   
         C         C         1.0       0.3483111760481936  0.9946565909837578  0.2630937976053353 1.0000   
         C         C         1.0       0.35297337145839314           0.008477210324727258         0.23323923029845123          1.0000   
         C         C         1.0       0.3440660860648091  0.9636188432750641  0.32641850335178824          1.0000   
         C         C         1.0       0.34608634246619785           0.9300630735294222 0.34005101222501566          1.0000   
         C         C         1.0       0.37680466934760226           0.9208299980407116 0.35915506772050376          1.0000   
         C         C         1.0       0.4056418428806988  0.9447414360353855  0.36571280533065054          1.0000   
         C         C         1.0       0.405184505811604   0.9772179714342966  0.3502679806923205 1.0000   
         C         C         1.0       0.3744337675552557  0.9875475801865229  0.3327763202959022 1.0000   
         C         C         1.0       0.29509885139638997           0.038443635815062605         0.33858842221677904          1.0000   
         C         C         1.0       0.2724947221603437  0.060479743188217805         0.3542103847134097 1.0000   
         C         C         1.0       0.2460744062461898  0.045076253217072315         0.3737581426682548 1.0000   
         C         C         1.0       0.24832462997851854           0.006716058880400055         0.37934723956168687          1.0000   
         C         C         1.0       0.26992663339036116           0.9858268437256581 0.3595117516627848 1.0000   
         C         C         1.0       0.2909785314661107  0.002194469818299405         0.3367639606241511 1.0000   
         H         H         1.0       0.11008597063220704           0.8679814338371322 0.2638472486800568 1.0000   
         H         H         1.0       0.19277367688254293           0.9272914890566073 0.21411419652822614          1.0000   
         H         H         1.0       0.13937247218738377           0.9620720052229801 0.18685118628402847          1.0000   
         H         H         1.0       0.059611422666763884          0.8895939688838819 0.22126699683469156          1.0000   
         H         H         1.0       0.23702598078727954           0.8793993662347499 0.20909969976061957          1.0000   
         H         H         1.0       0.24210240338022884           0.835309973330938  0.16885424179669486          1.0000   
         H         H         1.0       0.14798717569731942           0.7765068541530974 0.19465749576010127          1.0000   
         H         H         1.0       0.14715749209326967           0.8150635286461824 0.2446168752320307 1.0000   
         H         H         1.0       0.18486412677979291           0.9482707759217068 0.28104431737967556          1.0000   
         H         H         1.0       0.23172812910702228           0.9851601169831592 0.3055465012876444 1.0000   
         H         H         1.0       0.3135446853483954  0.9083222936155047  0.2752390048586015 1.0000   
         H         H         1.0       0.2599700307905181  0.8632639408691807  0.26479894832137096          1.0000   
         H         H         1.0       0.27616006352466826           0.05912626117120002          0.23004712556463214          1.0000   
         H         H         1.0       0.26775166347869944           0.034485315842757824         0.2764083996919795 1.0000   
         H         H         1.0       0.36816981024244105           0.972941861317345  0.27071865263031947          1.0000   
         H         H         1.0       0.3806639901324497  0.002136099479681741         0.22356520121037934          1.0000   
         H         H         1.0       0.325579340558701   0.9088747637829073  0.33903866655395504          1.0000   
         H         H         1.0       0.3746605144826658  0.8937391359675061  0.36990030106690724          1.0000   
         H         H         1.0       0.4274167782007816  0.9968494638994655  0.3502334646158727 1.0000   
         H         H         1.0       0.3727903296410693  0.014320864118489318         0.32322708399798966          1.0000   
         H         H         1.0       0.3164584623051887  0.04853217653130848           0.3224699534582099 1.0000   
         H         H         1.0       0.27221476528408084           0.08942615194589498          0.3491366539809752 1.0000   
         H         H         1.0       0.2339650265312128  0.9919281114051264  0.3986429899351007 1.0000   
         H         H         1.0       0.2682277169973274  0.9564884416469602  0.3615822177395641 1.0000   
         C         C         1.0       0.23717746364830375           0.12312697830201948          0.07536876538220416          1.0000   
         C         C         1.0       0.21218247763981407           0.11223878596940326          0.05262191681325312          1.0000   
         C         C         1.0       0.22363753840824416           0.08879010667852771          0.030334749179358633         1.0000   
         C         C         1.0       0.2602739317114086  0.07468519871401269           0.03055833610548664          1.0000   
         C         C         1.0       0.2838692880749895  0.08542900183083257           0.05438910581281764          1.0000   
         C         C         1.0       0.2729261217766054  0.10865037528974518           0.07649635473922478          1.0000   
         H         H         1.0       0.18463166988524657           0.12402124050085862          0.05249085109155027          1.0000   
         H         H         1.0       0.2011452636506289  0.07756481211905752           0.016683870260142175         1.0000   
         H         H         1.0       0.31020637115897237           0.07172735933906438          0.06038326980962294          1.0000   
         H         H         1.0       0.2928074621558192  0.11804771488825017           0.09387911576264396          1.0000   
         C         C         1.0       0.34029506086251676           0.06476870386930367          0.9997526550696264 1.0000   
         C         C         1.0       0.3136297074395408  0.03650589136727955           0.006649376855183631         1.0000   
         C         C         1.0       0.32740919087976844           0.0006140096618578728        0.006132610803044614         1.0000   
         C         C         1.0       0.3636173903449798  0.9922445176027243  0.0023977612580960983        1.0000   
         C         C         1.0       0.3871654792232086  0.02055871158490641           0.9918069494552515 1.0000   
         C         C         1.0       0.3755899783804716  0.055871621136188265         0.9906885098487904 1.0000   
         C         C         1.0       0.27136581450400515           0.0431024645718856 0.008283123457252017         1.0000   
         C         C         1.0       0.261480423113446   0.0464387554816601  0.9714337034269219 1.0000   
         C         C         1.0       0.2573778911857808  0.01582154003255054           0.9508852061883978 1.0000   
         C         C         1.0       0.24165777098606125           0.017420739395412443         0.9207885061665286 1.0000   
         C         C         1.0       0.22464018583326045           0.0487073294157081 0.9122735819421197 1.0000   
         C         C         1.0       0.22767993904348055           0.07880029889870799          0.9306575259285079 1.0000   
         C         C         1.0       0.2479973990641363  0.07933571102402959           0.9583379787806369 1.0000   
         C         C         1.0       0.2551820296039722  0.9860994802354999  0.046384945621155804         1.0000   
         C         C         1.0       0.23621931118433367           0.9534568628542615 0.05085608028776245          1.0000   
         C         C         1.0       0.20196010624875854           0.9475404548396891 0.034595853876554505         1.0000   
         C         C         1.0       0.18882787633521228           0.9746706339709301 0.014903102699955761         1.0000   
         C         C         1.0       0.21006304623611263           0.004102787323458479         0.00922953007148175          1.0000   
         C         C         1.0       0.24506692617045123           0.010262801686564238         0.02230829011906965          1.0000   
         C         C         1.0       0.17581489679236756           0.9139219172327175 0.03640360304402135          1.0000   
         C         C         1.0       0.20783269923875322           0.848321410800701  0.9567705653989185 1.0000   
         C         C         1.0       0.2325056202100183  0.8564268997257873  0.9796678082762644 1.0000   
         C         C         1.0       0.22216821628268338           0.8790628714130059 0.0023254678438260346        1.0000   
         C         C         1.0       0.18638749507362165           0.8963581308368245 0.003238427650298359         1.0000   
         C         C         1.0       0.16228224259840843           0.8891132746359373 0.9771195327082793 1.0000   
         C         C         1.0       0.1730777219022549  0.8654514531882752  0.9537446533901748 1.0000   
         C         C         1.0       0.13209508581942056           0.9258524832899808 0.040973073555929274         1.0000   
         C         C         1.0       0.12657040161513072           0.9535816004805907 0.06186732203344203          1.0000   
         C         C         1.0       0.09168944460682694           0.9640686510872813 0.06978326845217842          1.0000   
         C         C         1.0       0.060173547292616585          0.9455669452669997 0.060551878070421505         1.0000   
         C         C         1.0       0.06500139140672823           0.9159680839231269 0.04128240557403995          1.0000   
         C         C         1.0       0.09982790974761059           0.9074133017615792 0.031606149636088876         1.0000   
         C         C         1.0       0.1669359779763803  0.8466240120871167  0.0565652470890885 1.0000   
         C         C         1.0       0.1788426832521847  0.8188697769617971  0.07397703843064529          1.0000   
         C         C         1.0       0.19781904443168777           0.8269194350736213 0.10107750162392892          1.0000   
         C         C         1.0       0.20310832643154983           0.8626160895694249 0.11147423128655798          1.0000   
         C         C         1.0       0.19443751364637543           0.8907898217486291 0.09105123533188486          1.0000   
         C         C         1.0       0.1786215203863714  0.8835436957414179  0.06300076656563358          1.0000   
         H         H         1.0       0.3319148596706671  0.09201271432157787           0.9975472278239256 1.0000   
         H         H         1.0       0.31138038568952564           0.9763283649168787 0.009625834911925812         1.0000   
         H         H         1.0       0.3727023850539606  0.9655870849620017  0.0050447232991832625        1.0000   
         H         H         1.0       0.39194767563637656           0.07817047999206617          0.9830970288037305 1.0000   
         H         H         1.0       0.26619261960944307           0.9894757743932355 0.9577294798988067 1.0000   
         H         H         1.0       0.2417975386971882  0.9953225370533858  0.905731384361699  1.0000   
         H         H         1.0       0.21167746447555488           0.10248848496542551          0.925961319944937  1.0000   
         H         H         1.0       0.2481383500157084  0.10532343046881198           0.9705079714054974 1.0000   
         H         H         1.0       0.2785705750419003  0.9946089074339693  0.061589792727734016         1.0000   
         H         H         1.0       0.24608211173752864           0.9331130565670943 0.06826391911214591          1.0000   
         H         H         1.0       0.16138124411131705           0.9739448473599593 0.0037234019444338795        1.0000   
         H         H         1.0       0.20078520394880522           0.022082498388686922         0.9913326428327977 1.0000   
         H         H         1.0       0.262440543991207   0.8467828303583831  0.9807963169659951 1.0000   
         H         H         1.0       0.24366091839607035           0.8832257348962695 0.020673010212915566         1.0000   
         H         H         1.0       0.13470740537003742           0.898616345937881  0.9789663257274757 1.0000   
         H         H         1.0       0.1529953775803118  0.8611681655056554  0.9330794695835589 1.0000   
         H         H         1.0       0.14891396292014344           0.9698407667939041 0.07114965694860587          1.0000   
         H         H         1.0       0.09126065070611321           0.9841573391225475 0.08741713634309067          1.0000   
         H         H         1.0       0.040475946184627125          0.9001324576719721 0.034131805329354226         1.0000   
         H         H         1.0       0.10234998817337905           0.8824998813301318 0.019368944102751362         1.0000   
         H         H         1.0       0.15133549781584557           0.840823297015432  0.0350298276104235 1.0000   
         H         H         1.0       0.1718491778526815  0.7927741098839557  0.06363031743130931          1.0000   
         H         H         1.0       0.21142489548197874           0.8731392014091084 0.13367384009124406          1.0000   
         H         H         1.0       0.20015824191684398           0.9194068909665276 0.09902471856049178          1.0000   
         C         C         1.0       0.4710367678930519  0.24025315363942878           0.19499423512339262          1.0000   
         C         C         1.0       0.44013640020748057           0.24671915345009277          0.17605400966306664          1.0000   
         C         C         1.0       0.40487744164441397           0.24395851545509897          0.18827832269593775          1.0000   
         C         C         1.0       0.3997283607869725  0.23558591910487459           0.21859936718424466          1.0000   
         C         C         1.0       0.43082515179818937           0.22600740906597394          0.2367625587242868 1.0000   
         C         C         1.0       0.46673756278776785           0.23024932661272335          0.22579932780959983          1.0000   
         H         H         1.0       0.44251238750836563           0.25855529120695325          0.1527564357732003 1.0000   
         H         H         1.0       0.38024322196777927           0.24813484906596261          0.1734041899988297 1.0000   
         H         H         1.0       0.42819039321889757           0.2178339884340686 0.2600374600687437 1.0000   
         H         H         1.0       0.4907512829356428  0.22910439874910363           0.24161065696181172          1.0000   
         C         C         1.0       0.3717954246373559  0.1622010636055683  0.21345639830582366          1.0000   
         C         C         1.0       0.34571245082589297           0.18874151179394177          0.21921477089926783          1.0000   
         C         C         1.0       0.30947895069174286           0.17766383531465066          0.2137203979749932 1.0000   
         C         C         1.0       0.29823256513947266           0.14394086412054902          0.20177894842061878          1.0000   
         C         C         1.0       0.3255616347851758  0.11987042566827848           0.19149620345322202          1.0000   
         C         C         1.0       0.3618235054815565  0.12852333229925508           0.20041209198184198          1.0000   
         C         C         1.0       0.35689759199120963           0.228581537729101  0.23111926535186228          1.0000   
         C         C         1.0       0.3351740916151757  0.26372711849755426           0.21947449319915485          1.0000   
         C         C         1.0       0.3473206370070061  0.2985992032390915  0.22747986941353385          1.0000   
         C         C         1.0       0.33092352552982396           0.327977101357218  0.21604962013564052          1.0000   
         C         C         1.0       0.30606512702032246           0.3253059895264363 0.19168173016834109          1.0000   
         C         C         1.0       0.297001584150431   0.29176146643597606           0.18180336584090595          1.0000   
         C         C         1.0       0.31191598043565255           0.26151352233294467          0.19413383782739838          1.0000   
         C         C         1.0       0.32071924584720335           0.21427497876072504          0.28020837441902496          1.0000   
         C         C         1.0       0.30862471304676464           0.22552436810670895          0.30848099304195076          1.0000   
         C         C         1.0       0.3253486662655525  0.2535294714018356  0.3256899383226933 1.0000   
         C         C         1.0       0.3565503901860475  0.26609888090272965           0.31345888662212523          1.0000   
         C         C         1.0       0.3706437957870795  0.25517749409879836           0.2861167388449677 1.0000   
         C         C         1.0       0.35037040533333214           0.23135356695104994          0.26645122582101816          1.0000   
         C         C         1.0       0.30835184492319245           0.2724923964992331 0.3551554765681236 1.0000   
         C         C         1.0       0.217167412740558   0.3426612017591296  0.31951051575759115          1.0000   
         C         C         1.0       0.20972866759109585           0.30752008353327087          0.3277401732647625 1.0000   
         C         C         1.0       0.2364948638743871  0.28463335253810546           0.3383786916227728 1.0000   
         C         C         1.0       0.2730590586567694  0.29625105645419336           0.3413701761752684 1.0000   
         C         C         1.0       0.2818882731418274  0.33095083379880985           0.33155821779511613          1.0000   
         C         C         1.0       0.25378452149292324           0.3542516856478933 0.32196898488239184          1.0000   
         C         C         1.0       0.33823061808702887           0.2957577679344449 0.3790734948603408 1.0000   
         C         C         1.0       0.37391703991431063           0.2824949847931657 0.3882581582094061 1.0000   
         C         C         1.0       0.39459209910323323           0.29692124531923453          0.412115247353624  1.0000   
         C         C         1.0       0.3821297996679997  0.3270373361258028  0.42757062112067545          1.0000   
         C         C         1.0       0.3498474560832645  0.34320917051220895           0.4164881045216983 1.0000   
         C         C         1.0       0.3263352566631878  0.3254596728250453  0.3956889277063138 1.0000   
         C         C         1.0       0.2690433428621698  0.24911749028329325           0.4025272019559023 1.0000   
         C         C         1.0       0.26526724101821314           0.22481456557296425          0.42704702562191854          1.0000   
         C         C         1.0       0.28330825179324837           0.19210709975774767          0.42719119464652594          1.0000   
         C         C         1.0       0.3085555347721418  0.18457782938002537           0.40623712849476784          1.0000   
         C         C         1.0       0.3164076429679661  0.2100399995707899  0.38363466667109053          1.0000   
         C         C         1.0       0.2967749006840615  0.24273155839982302           0.38115395087462833          1.0000   
         H         H         1.0       0.40066456949084506           0.16620232043914704          0.21856653536398835          1.0000   
         H         H         1.0       0.2870719302710005  0.19490825323338706           0.22161543442144804          1.0000   
         H         H         1.0       0.26928335367759604           0.13792267841811773          0.19989618021986402          1.0000   
         H         H         1.0       0.38167398436137867           0.10543391740272412          0.20038316563315892          1.0000   
         H         H         1.0       0.3699006769381565  0.30616447787951434           0.24240856722505952          1.0000   
         H         H         1.0       0.33929944844357174           0.35439047822168   0.2204685265245109 1.0000   
         H         H         1.0       0.2764538623520525  0.28663152582696433           0.16349957578206584          1.0000   
         H         H         1.0       0.3005970666581956  0.2370835819294529  0.18404653938434873          1.0000   
         H         H         1.0       0.3031917604272715  0.19559106156933653           0.2681493094402094 1.0000   
         H         H         1.0       0.2848750678597968  0.21105662917051568           0.3191712342579075 1.0000   
         H         H         1.0       0.3699740804137258  0.2892047487167361  0.3222707897417972 1.0000   
         H         H         1.0       0.39468368885544947           0.26936193258984836          0.27645519989057943          1.0000   
         H         H         1.0       0.18153065555785639           0.2984411480068693 0.3295692217665936 1.0000   
         H         H         1.0       0.23115039623185238           0.2558190662723081 0.34262210369697843          1.0000   
         H         H         1.0       0.3097379341173359  0.3380491361759966  0.33167540172111454          1.0000   
         H         H         1.0       0.26056700266124044           0.3811584318151909 0.31512575259628645          1.0000   
         H         H         1.0       0.38919614414513404           0.25973338086725184          0.3777091534764441 1.0000   
         H         H         1.0       0.41827495062086456           0.28459677925900045          0.4225706813310233 1.0000   
         H         H         1.0       0.3375642716162766  0.36701068455156494           0.42853774430044556          1.0000   
         H         H         1.0       0.29705483824982304           0.33533730096839987          0.39211375372020196          1.0000   
         H         H         1.0       0.2518916965933686  0.27405441101316214           0.39991009260651184          1.0000   
         H         H         1.0       0.24626371484513826           0.23202943880308885          0.4450570729008521 1.0000   
         H         H         1.0       0.3228925120826316  0.15940914142258994           0.40637163429246054          1.0000   
         H         H         1.0       0.33913897709922797           0.2067252295545141 0.36843449794017   1.0000   
         C         C         1.0       0.20345807813622482           0.37816459619377596          0.979928662406971  1.0000   
         C         C         1.0       0.2026354021489929  0.3409735857290928  0.9816262941326013 1.0000   
         C         C         1.0       0.23092892538918997           0.3198365654649355 0.971183178664901  1.0000   
         C         C         1.0       0.2595006375406019  0.3368341514057589  0.9543961099242896 1.0000   
         C         C         1.0       0.26484513135140014           0.37522366765742204          0.9604342767152241 1.0000   
         C         C         1.0       0.23563226630556908           0.39623901600889966          0.9710602991678259 1.0000   
         H         H         1.0       0.1800925219073955  0.3298578728548477  0.9939336515021682 1.0000   
         H         H         1.0       0.230102931398302   0.2908287661486576  0.9745392551193356 1.0000   
         H         H         1.0       0.290420843461253   0.3881384390952084  0.953209378646447  1.0000   
         H         H         1.0       0.23885311637831882           0.42573990427155717          0.9733635160951373 1.0000   
         C         C         1.0       0.2959788497559293  0.36012848731540653           0.8962053080853434 1.0000   
         C         C         1.0       0.3144925047379989  0.3352732861923704  0.9158107485105155 1.0000   
         C         C         1.0       0.35318688820561434           0.3312221179860596 0.9130566576349896 1.0000   
         C         C         1.0       0.3708098676534659  0.34636666509265396           0.8874228037542671 1.0000   
         C         C         1.0       0.3528204264603857  0.3711607158778529  0.8693233605428302 1.0000   
         C         C         1.0       0.31460515120325244           0.3768337155910771 0.8729708671260538 1.0000   
         C         C         1.0       0.2890366518443913  0.31124488353846275           0.9376575143325209 1.0000   
         C         C         1.0       0.27552342619965575           0.27663538543972743          0.9163812557006258 1.0000   
         C         C         1.0       0.30290567965126064           0.25508648094924363          0.9032600790878895 1.0000   
         C         C         1.0       0.29235959884865625           0.22655624119833034          0.8844256387021449 1.0000   
         C         C         1.0       0.2572546554178457  0.218722689236268   0.8778541247811283 1.0000   
         C         C         1.0       0.22893762953549218           0.23946987854545135          0.890377421895911  1.0000   
         C         C         1.0       0.23885146833864776           0.26862123919788333          0.9091037102922113 1.0000   
         C         C         1.0       0.3334119107954666  0.3223690877317561  0.9840694296176831 1.0000   
         C         C         1.0       0.3430857437057685  0.31507889429774627           0.014153916103440078         1.0000   
         C         C         1.0       0.33572476096918114           0.2804858414190433 0.02731793189211662          1.0000   
         C         C         1.0       0.3180989946446631  0.25542761000598607           0.008583149949744184         1.0000   
         C         C         1.0       0.3045963889503967  0.2638016911531583  0.9788708392925145 1.0000   
         C         C         1.0       0.31262386775319523           0.2981780684880454 0.9669776464170509 1.0000   
         C         C         1.0       0.3490402966553719  0.27193302334457015           0.06197356703613255          1.0000   
         C         C         1.0       0.4611124097955003  0.2393682322702288  0.03033950987855638          1.0000   
         C         C         1.0       0.4576368805155065  0.27149479224696227           0.04802576264636094          1.0000   
         C         C         1.0       0.4225294103838761  0.2798122664180654  0.05980531617376128          1.0000   
         C         C         1.0       0.39219929067243237           0.2579031153139344 0.05547212353249176          1.0000   
         C         C         1.0       0.3972394168688703  0.2246405922967662  0.04230715142093455          1.0000   
         C         C         1.0       0.4305398065164083  0.21544510579911935           0.03143750281859359          1.0000   
         C         C         1.0       0.32236471651270615           0.24276172066606766          0.08013302959557334          1.0000   
         C         C         1.0       0.28335719779985513           0.24520659753416107          0.0751963959508346 1.0000   
         C         C         1.0       0.2611139709516713  0.21971672432125744           0.08909920056077958          1.0000   
         C         C         1.0       0.27767957317044717           0.19398815997373664          0.10937448613829082          1.0000   
         C         C         1.0       0.314510927458064   0.1945996969848226  0.11627749243788266          1.0000   
         C         C         1.0       0.3365514260794931  0.21938485967442597           0.1020230263774411 1.0000   
         C         C         1.0       0.3674000047818513  0.310587340715453   0.11167758914646742          1.0000   
         C         C         1.0       0.3616302249852451  0.34045408313244335           0.1318935303384252 1.0000   
         C         C         1.0       0.32889234676417867           0.36014749068040874          0.1307495756991206 1.0000   
         C         C         1.0       0.3090104151128723  0.35710337194618197           0.10475535816674642          1.0000   
         C         C         1.0       0.3168113998101289  0.3306821195322343  0.08316704105409833          1.0000   
         C         C         1.0       0.3454624975142766  0.3069484863005092  0.08492403594353415          1.0000   
         H         H         1.0       0.2645526122996985  0.35985095944329115           0.8946839563211927 1.0000   
         H         H         1.0       0.36831078032664233           0.3160970054524657 0.9290421174619955 1.0000   
         H         H         1.0       0.4012742512596162  0.34234404105198263           0.8848643645148399 1.0000   
         H         H         1.0       0.2996049324293786  0.3887849128378369  0.8557495198461248 1.0000   
         H         H         1.0       0.33025370391575026           0.26093871568377536          0.9092187135565527 1.0000   
         H         H         1.0       0.3168573648860652  0.21319417140876204           0.8739814897455445 1.0000   
         H         H         1.0       0.1984420432383216  0.2318288968730995  0.8863770543973826 1.0000   
         H         H         1.0       0.21675859965407707           0.2867069346785285 0.9170207996263647 1.0000   
         H         H         1.0       0.34132410691655746           0.3500596516587696 0.9752521693013287 1.0000   
         H         H         1.0       0.35896099285083605           0.3348705552382083 0.026935153904225517         1.0000   
         H         H         1.0       0.31683502970774147           0.22691097744258004          0.014456594620291252         1.0000   
         H         H         1.0       0.2889342322176444  0.24234549694016014           0.9668541182413251 1.0000   
         H         H         1.0       0.48172021484320365           0.2870345234575245 0.05241304320880125          1.0000   
         H         H         1.0       0.41615990432029953           0.3070106377894936 0.06817422507863102          1.0000   
         H         H         1.0       0.37325116142258147           0.2053701625934683 0.03815313883791571          1.0000   
         H         H         1.0       0.43561302725475304           0.18940362755640125          0.018917674389349548         1.0000   
         H         H         1.0       0.26984156705026907           0.2621472800766203 0.05682785136085644          1.0000   
         H         H         1.0       0.23094028473557537           0.2237008996291053 0.08653174675271313          1.0000   
         H         H         1.0       0.32567361258678007           0.17630109253102338          0.13323655117989386          1.0000   
         H         H         1.0       0.3655646434002936  0.2173277035994045  0.10790247908906947          1.0000   
         H         H         1.0       0.38884551760355673           0.2897019761545909 0.11743974814161162          1.0000   
         H         H         1.0       0.3794094013785365  0.34450953763468567           0.15268865990185246          1.0000   
         H         H         1.0       0.2822015265255533  0.3684791955792345  0.10221085400274399          1.0000   
         H         H         1.0       0.3002590867030095  0.3294562938363639  0.06150962713139618          1.0000   
         C         C         1.0       0.28818552905131395           0.3606661955456412 0.17527335244955417          1.0000   
         C         C         1.0       0.3176457891043584  0.3839473629347929  0.15860378901322938          1.0000   
         H         H         1.0       0.26928755047868863           0.35503447650940634          0.15700318035625171          1.0000   
         H         H         1.0       0.27536578937707334           0.37845059906129386          0.19229793299398235          1.0000   
         H         H         1.0       0.343409876109938   0.38920166290245445           0.17372858882588474          1.0000   
         H         H         1.0       0.3065936100424279  0.4100936776115322  0.14979574761212505          1.0000   
         C         C         1.0       0.22053878466271132           0.14953133527278015          0.10052787356454784          1.0000   
         C         C         1.0       0.24879321343751332           0.16722882441227005          0.12272657884167226          1.0000   
         H         H         1.0       0.20092689408252776           0.17025969417913134          0.0911788566396865 1.0000   
         H         H         1.0       0.20202784842464036           0.13209262321006307          0.11633049422264308          1.0000   
         H         H         1.0       0.26420241799571864           0.1455498698310904 0.13489600110410604          1.0000   
         H         H         1.0       0.23873700148222363           0.18097711184296358          0.14146103756475048          1.0000   
         C         C         1.0       0.3318181963619381  0.04628841114269666           0.1881176366729783 1.0000   
         C         C         1.0       0.314625759607501   0.08287002582914527           0.17500964613002068          1.0000   
         H         H         1.0       0.3618249900621629  0.045459148765416346         0.1802370671563407 1.0000   
         H         H         1.0       0.3177683930230653  0.024615149045386975         0.17285846526111795          1.0000   
         H         H         1.0       0.2834431138868387  0.08211143811496191           0.17389854450235648          1.0000   
         H         H         1.0       0.3236359469734974  0.08547305343270639           0.15074251053885301          1.0000   
         C         C         1.0       0.21717774548168226           0.7975855209077224 0.12101873588139589          1.0000   
         C         C         1.0       0.19360354683343506           0.7834351192750031 0.14863811966376558          1.0000   
         H         H         1.0       0.22183988363593413           0.7728854161499185 0.10738031475414365          1.0000   
         H         H         1.0       0.24509101244791334           0.80611813710193   0.12815349679921723          1.0000   
         H         H         1.0       0.19961018721680807           0.7540323414145105 0.15165968221724332          1.0000   
         H         H         1.0       0.16286914944162573           0.7855681716885696 0.14204509085481615          1.0000   
         C         C         1.0       0.004157075245766247          0.9949916212311416 0.05888554283555192          1.0000   
         C         C         1.0       0.021918213099851203          0.9580126807701753 0.07246760596886537          1.0000   
         H         H         1.0       0.020719065290949024          0.01783260354625238          0.06892804939595987          1.0000   
         H         H         1.0       0.9746241168591134  0.9999122444355704  0.06829947711335671          1.0000   
         H         H         1.0       0.0034221037148043413         0.9365558886787725 0.06521368008649464          1.0000   
         H         H         1.0       0.021797282688413855          0.9593887299099731 0.09757013437655138          1.0000   
         C         C         1.0       0.05692507390102097           0.9851521442963651 0.18464192847561212          1.0000   
         C         C         1.0       0.06880765257469967           0.945809041258952  0.17875071581075164          1.0000   
         H         H         1.0       0.03675475868555034           0.9955744175993264 0.16631442330058863          1.0000   
         H         H         1.0       0.08287010454477282           0.0007321759670559924        0.18401279256609024          1.0000   
         H         H         1.0       0.0775085133824953  0.9421461586901629  0.15531924290816151          1.0000   
         H         H         1.0       0.041563088807092585          0.9317100569286549 0.17827288089101948          1.0000   
         C         C         1.0       0.8582014618217693  0.0687106663481658  0.10758808741518222          1.0000   
         C         C         1.0       0.8541565452832587  0.0277819410497695  0.09695300613493485          1.0000   
         H         H         1.0       0.8357295719433846  0.08669032073302851           0.09627466298501751          1.0000   
         H         H         1.0       0.8849695881513628  0.07871479276037108           0.09667522418764672          1.0000   
         H         H         1.0       0.8298288687681058  0.013993228867556162         0.1088725021302086 1.0000   
         H         H         1.0       0.8793189020670865  0.011368367789567513         0.1049857549853579 1.0000   
         C         C         1.0       0.8961943771293392  0.20198359608092353           0.04603256355620733          1.0000   
         C         C         1.0       0.8588623218547231  0.18616379174671494           0.03358867037314073          1.0000   
         H         H         1.0       0.9161484798799945  0.18129179490604108           0.05291657074553924          1.0000   
         H         H         1.0       0.8928184153725636  0.21553160857650888           0.06851230787269968          1.0000   
         H         H         1.0       0.843404105577295   0.209655027629221   0.022538375884402884         1.0000   
         H         H         1.0       0.8404430434391065  0.180291380466861   0.053112861802270706         1.0000   
         C         C         1.0       0.16685885801878964           0.39993762961375656          0.9847670995314166 1.0000   
         C         C         1.0       0.1645640659618696  0.4257423128187254  0.013639908354892816         1.0000   
         H         H         1.0       0.14104831264755346           0.38229819119723124          0.9846639976508677 1.0000   
         H         H         1.0       0.15763665581191416           0.4156788435500499 0.963172552020752  1.0000   
         H         H         1.0       0.17934554444880155           0.4526704854747176 0.008986008464496154         1.0000   
         H         H         1.0       0.181170654962282   0.41164747216371017           0.031067284406932627         1.0000   
         C         C         1.0       0.9638124043245453  0.27255002163462416           0.2326047196645826 1.0000   
         C         C         1.0       0.9287172028823552  0.25498455941637177           0.21336990690154092          1.0000   
         H         H         1.0       0.9705874404593233  0.297567090725342   0.2200677520438832 1.0000   
         H         H         1.0       0.9901572740314003  0.256877939625344   0.22841355491131896          1.0000   
         H         H         1.0       0.9352857075610176  0.25135743923120435           0.18883697161084034          1.0000   
         H         H         1.0       0.9059994858330495  0.27476329033855795           0.21676332119234196          1.0000   
         C         C         1.0       0.18749024983168927           0.36769400396152163          0.3066628573937716 1.0000   
         C         C         1.0       0.17452515045061334           0.3975820010953954 0.3301637203658427 1.0000   
         H         H         1.0       0.19332556691321368           0.3761431172004983 0.2834873769828732 1.0000   
         H         H         1.0       0.16408824369035657           0.35024957001740803          0.3012663852453938 1.0000   
         H         H         1.0       0.1951546126033894  0.4198545971471446  0.3235748736834597 1.0000   
         H         H         1.0       0.18272809716532112           0.3922207769760747 0.3551929448289743 1.0000   
         C         C         1.0       0.01599133566466926           0.41709573488827123          0.18718760074967958          1.0000   
         C         C         1.0       0.9790629218337072  0.4157844243548044  0.1681317397593503 1.0000   
         H         H         1.0       0.03179687619539551           0.3927488026315429 0.18205900503165948          1.0000   
         H         H         1.0       0.03194430271269466           0.4412766583861911 0.17740303706179936          1.0000   
         H         H         1.0       0.9688277528916258  0.38652103132131055           0.17220641898052175          1.0000   
         H         H         1.0       0.9581626288581311  0.43283349772289775           0.17998885093728778          1.0000   
         C         C         1.0       0.43871113004242884           0.9261261639690651 0.41931303441314965          1.0000   
         C         C         1.0       0.4394887990501559  0.9312004441551198  0.38387332437693794          1.0000   
         H         H         1.0       0.4678309560502592  0.9193331154140163  0.42888435886401766          1.0000   
         H         H         1.0       0.4227270038687418  0.9007923652312484  0.4219186788335783 1.0000   
         H         H         1.0       0.44641756144487826           0.9050730692335563 0.37370592874680564          1.0000   
         H         H         1.0       0.46103068820221643           0.947646071825913  0.37609391036166084          1.0000   
         C         C         1.0       0.25767082609193803           0.13039972060953323          0.4426614802251716 1.0000   
         C         C         1.0       0.2756851614111988  0.16676289494407517           0.45328854818620745          1.0000   
         H         H         1.0       0.22834203426521005           0.12887671363324793          0.4511658135116667 1.0000   
         H         H         1.0       0.2520715407611748  0.13102033305655955           0.4180473138356166 1.0000   
         H         H         1.0       0.30448540107884975           0.16130803547085676          0.46457770606380844          1.0000   
         H         H         1.0       0.25990385928373133           0.18234484914718435          0.47041885945012557          1.0000   
         C         C         1.0       0.5519711785234829  0.11768892390022821           0.658978104020388  1.0000   
         C         C         1.0       0.5621450480996879  0.13695605008489095           0.6891314066571209 1.0000   
         H         H         1.0       0.5426323352920078  0.09044312874142602           0.664904870074654  1.0000   
         H         H         1.0       0.5793928390286013  0.11235458010658632           0.647965566716307  1.0000   
         H         H         1.0       0.5764146257559507  0.16401683590445743           0.6813742022927973 1.0000   
         H         H         1.0       0.5822127441898974  0.12276381631395714           0.706629590216507  1.0000   
         C         C         1.0       0.42936408981996854           0.9942980363167249 0.9508737618088225 1.0000   
         C         C         1.0       0.42741768856199003           0.012020398391505038         0.9827017211204194 1.0000   
         H         H         1.0       0.41839867915352547           0.9661432903732254 0.9529837891715667 1.0000   
         H         H         1.0       0.4589387568788902  0.9933191677394105  0.945527660438349  1.0000   
         H         H         1.0       0.44673787079408006           0.0340020314338394 0.9828532183036938 1.0000   
         H         H         1.0       0.43927003711149026           0.99487532224685   0.0015979457532753205        1.0000   
         C         C         1.0       0.24484331441104812           0.19071386558016407          0.8533589661210651 1.0000   
         C         C         1.0       0.23088562051527725           0.1554373995054684 0.867251549614148  1.0000   
         H         H         1.0       0.222706056979841   0.20374975334047854           0.8391396424657614 1.0000   
         H         H         1.0       0.26737131819161525           0.18501225361784315          0.8366200768351003 1.0000   
         H         H         1.0       0.22541515936792203           0.15888318710009483          0.893477312469884  1.0000   
         H         H         1.0       0.20465317466189442           0.14647891161573529          0.8570161845412448 1.0000   
         C         C         1.0       0.0576536917705488  0.17104992219326243           0.38338143733428737          1.0000   
         C         C         1.0       0.07769477524450097           0.13309494143948308          0.38707631276080445          1.0000   
         H         H         1.0       0.04579069331557184           0.17638240800997673          0.3597366791352204 1.0000   
         H         H         1.0       0.07720298766039768           0.19536095603432435          0.38893926196169043          1.0000   
         H         H         1.0       0.10588581236864547           0.13834459848681213          0.3775219085168481 1.0000   
         H         H         1.0       0.08169572901285083           0.12373664493735159          0.4115737780568565 1.0000   
         C         C         1.0       0.7945545553262077  0.20977810963043741           0.3993004364432445 1.0000   
         C         C         1.0       0.8001464549929154  0.2505234428031087  0.39478671565184953          1.0000   
         H         H         1.0       0.7674877711094124  0.2049311819350444  0.4093069757412574 1.0000   
         H         H         1.0       0.7921662634826893  0.1940225206921362  0.3758051003084958 1.0000   
         H         H         1.0       0.7888938483616146  0.26592375685739045           0.4122720888980663 1.0000   
         H         H         1.0       0.7805399089887065  0.25884248305767144           0.37547792958223214          1.0000   
         C         C         1.0       0.8020095457303271  0.022832436937592293         0.6217227241512199 1.0000   
         C         C         1.0       0.7918167570253033  0.05658600230321898           0.6414059033200908 1.0000   
         H         H         1.0       0.8019350241296515  0.9970079065229952  0.6351167169497453 1.0000   
         H         H         1.0       0.7808258687937397  0.013358066204846919         0.6035399322008601 1.0000   
         H         H         1.0       0.7628771871160096  0.05282164479452667           0.6464211730397884 1.0000   
         H         H         1.0       0.7885846498486011  0.08329648701387926           0.6276250974442029 1.0000   
         C         C         1.0       0.06932383227077454           0.16458404636903623          0.8746238495179628 1.0000   
         C         C         1.0       0.0766702826833956  0.12527450472353308           0.8612882175581335 1.0000   
         H         H         1.0       0.06354816360963778           0.16453667658499782          0.8987477719895594 1.0000   
         H         H         1.0       0.09636593949256977           0.17808348123309004          0.8767522950193973 1.0000   
         H         H         1.0       0.10547931238379782           0.11752267134521   0.8583440928154741 1.0000   
         H         H         1.0       0.06895853983883082           0.12260744913370991          0.8364144263470904 1.0000   
         C         C         1.0       0.8401680532717466  0.3326363290420134  0.8590134772505437 1.0000   
         C         C         1.0       0.8609956058186553  0.33136177756020097           0.8286695154861955 1.0000   
         H         H         1.0       0.8173814735386714  0.3111985725239359  0.860437965416266  1.0000   
         H         H         1.0       0.8269402102455     0.35977004455098155           0.8631871409401898 1.0000   
         H         H         1.0       0.8729284462651877  0.359578805355209   0.8247575173629363 1.0000   
         H         H         1.0       0.8392505502904665  0.33030330551414416           0.8110118560769507 1.0000   
         C         C         1.0       0.9815037924640314  0.8812339549986822  0.41046152376470774          1.0000   
         C         C         1.0       0.9711536424718444  0.8861061873355909  0.37598293642993236          1.0000   
         H         H         1.0       0.9776669206966672  0.8519356674500238  0.4154597267455024 1.0000   
         H         H         1.0       0.9598877406012855  0.8942208918312944  0.4230535778811694 1.0000   
         H         H         1.0       0.9411520769043813  0.8779532574268724  0.3693913124423363 1.0000   
         H         H         1.0       0.9884009924955982  0.8668227808326444  0.36087955410504274          1.0000   
         C         C         1.0       0.2162179240715282  0.06933837207924665           0.3893259253831066 1.0000   
         C         C         1.0       0.17621883153361234           0.05969144150812489          0.3752592485234581 1.0000   
         H         H         1.0       0.2189178219106708  0.06551766429749839           0.4152979643395841 1.0000   
         H         H         1.0       0.2203100412429988  0.09893030677963233           0.3833845507931032 1.0000   
         H         H         1.0       0.1574903142091954  0.08460511649403424           0.3726892999970568 1.0000   
         H         H         1.0       0.17923288916176774           0.04815188615550592          0.3510748952749033 1.0000   
         C         C         1.0       0.10992327980085886           0.9968990931644619 0.5840092016917732 1.0000   
         C         C         1.0       0.09095877506554648           0.035918719961431256         0.5798819115412519 1.0000   
         H         H         1.0       0.09024747240855979           0.9815840519658583 0.5989736744667371 1.0000   
         H         H         1.0       0.1367717855525743  0.9993398209187795  0.5968864899653971 1.0000   
         H         H         1.0       0.10835791805980158           0.05374976910390372          0.5627435901190658 1.0000   
         H         H         1.0       0.09536738936486279           0.05481093557256589          0.5990884636331221 1.0000   
         C         C         1.0       0.3375249545419458  0.96441111718369    0.6140884998190278 1.0000   
         C         C         1.0       0.29822818304567056           0.9471279462747163 0.613394505848873  1.0000   
         H         H         1.0       0.35939515329140825           0.9459269511854946 0.6239912609124703 1.0000   
         H         H         1.0       0.3390987663902165  0.9849073325050481  0.6331097326286851 1.0000   
         H         H         1.0       0.27800113982854213           0.9694766715206046 0.6163881652111453 1.0000   
         H         H         1.0       0.2947850030871805  0.927699799271549   0.6338791465865596 1.0000   
         C         C         1.0       0.050928285928853345          0.9873408467445626 0.6695589158353795 1.0000   
         C         C         1.0       0.008375783500033762          0.979257417818525  0.6641966760489357 1.0000   
         H         H         1.0       0.05790782333335742           0.01587950394430937          0.6640080416660714 1.0000   
         H         H         1.0       0.06579990634393096           0.972839027997194  0.6515918539606499 1.0000   
         H         H         1.0       0.0005429871830966437         0.9484226971758002 0.6655624556498971 1.0000   
         H         H         1.0       0.9994084721027753  0.9860483593734701  0.6403205158584815 1.0000   
         C         C         1.0       0.39677448297970686           0.984934744808434  0.7236791432577786 1.0000   
         C         C         1.0       0.40028099643461074           0.9438606056095675 0.7159566306438895 1.0000   
         H         H         1.0       0.379845553082015   0.997567157396599   0.7042589770720686 1.0000   
         H         H         1.0       0.4270723434202345  0.9945289218476822  0.7231623732113825 1.0000   
         H         H         1.0       0.4228708963624238  0.9282827808371964  0.7309689505741663 1.0000   
         H         H         1.0       0.41212081212390084           0.9400079783102921 0.6922091177642559 1.0000   
         C         C         1.0       0.21557221556969036           0.756642149346671  0.6325399358676921 1.0000   
         C         C         1.0       0.18602770090904885           0.7648395621695864 0.6071361603931695 1.0000   
         H         H         1.0       0.2388693369843491  0.7401397408981542  0.6233530273811527 1.0000   
         H         H         1.0       0.2003044713981021  0.7369704128422956  0.647861343522902  1.0000   
         H         H         1.0       0.1582411118478952  0.7744628741057914  0.6147467148877281 1.0000   
         H         H         1.0       0.17994714728730254           0.7374936423880053 0.5965343363410407 1.0000   
         C         C         1.0       0.020045642934344077          0.8438740813637655 0.850792880000339  1.0000   
         C         C         1.0       0.014451239925451274          0.8559416266042223 0.8841279627404834 1.0000   
         H         H         1.0       0.9909543098211228  0.8479573801051754  0.8417973717029325 1.0000   
         H         H         1.0       0.02453870929152946           0.8138854347590775 0.8479941707342254 1.0000   
         H         H         1.0       0.03821374664016596           0.8439249825181744 0.9003680332058991 1.0000   
         H         H         1.0       0.9866587529927544  0.8475184625075116  0.8930762432070234 1.0000   
         C         C         1.0       0.16364428504208245           0.024830668162676206         0.8918672990208609 1.0000   
         C         C         1.0       0.19765753750678955           0.048825632370898875         0.8842818582920634 1.0000   
         H         H         1.0       0.14226827652779608           0.0429815287002131 0.8990503127424383 1.0000   
         H         H         1.0       0.16786632709043917           0.008106811511670253         0.9118312928050578 1.0000   
         H         H         1.0       0.21321817561081396           0.03863832923907329          0.8646195019577665 1.0000   
         H         H         1.0       0.1889713708507139  0.07653727888340955           0.8792555953427813 1.0000   
         C         C         1.0       0.11180517480156782           0.2513903279539193 0.44539985641545554          1.0000   
         C         C         1.0       0.07772640427312161           0.27916430469830816          0.4468353063593325 1.0000   
         H         H         1.0       0.11899847668776453           0.24986397578974143          0.4206334185627137 1.0000   
         H         H         1.0       0.09994891746255985           0.22509457397897842          0.4506600972656442 1.0000   
         H         H         1.0       0.08925503865246975           0.3072186652048142 0.44027638896198507          1.0000   
         H         H         1.0       0.06893386262660117           0.28646271684402436          0.46996068030547344          1.0000   
         C         C         1.0       0.3891436023545478  0.3190891133170201  0.4868258190516375 1.0000   
         C         C         1.0       0.4036237315808474  0.33866648746910794           0.45733535495221833          1.0000   
         H         H         1.0       0.4052410650945231  0.32992301605039037           0.5063603065208309 1.0000   
         H         H         1.0       0.39925819550734637           0.2894176200715723 0.48678992959724604          1.0000   
         H         H         1.0       0.43367578693094905           0.33769499666335934          0.45604531815167515          1.0000   
         H         H         1.0       0.39477494139211805           0.3670504405362465 0.46026507862628674          1.0000   
         C         C         1.0       0.30726854526682973           0.2567223934521132 0.629885396678227  1.0000   
         C         C         1.0       0.3495016560511765  0.26080224001133706           0.628552310034119  1.0000   
         H         H         1.0       0.2974151236059866  0.2679126134242886  0.6525976075389038 1.0000   
         H         H         1.0       0.2987651422822484  0.22770229967169411           0.6309023726710195 1.0000   
         H         H         1.0       0.361288838508534   0.2521546731648309  0.6521086373378324 1.0000   
         H         H         1.0       0.35833024565148397           0.2909076071232456 0.6273844677438567 1.0000   
         C         C         1.0       0.022173322746082302          0.30702441619986476          0.5375995255044099 1.0000   
         C         C         1.0       0.9802254869748541  0.3084082075864145  0.5268526958092519 1.0000   
         H         H         1.0       0.034360446601464645          0.28918719173411517          0.5211863892514706 1.0000   
         H         H         1.0       0.027525295554328588          0.29336539996776856          0.5601740481246599 1.0000   
         H         H         1.0       0.9763680725486179  0.32833025355373674           0.5090563220148839 1.0000   
         H         H         1.0       0.9656749477530365  0.3238961182826736  0.5457885477597855 1.0000   
         C         C         1.0       0.2702435476882259  0.1729412419835071  0.7027658440666386 1.0000   
         C         C         1.0       0.30068165369601657           0.18632221231053686          0.6817401342966302 1.0000   
         H         H         1.0       0.27952428834149445           0.1475502616621455 0.7144924691892921 1.0000   
         H         H         1.0       0.24566600169589203           0.16577112730456714          0.6872025777264842 1.0000   
         H         H         1.0       0.2943197223276333  0.21375948649099388           0.6738077328952516 1.0000   
         H         H         1.0       0.3017357446693752  0.16821450699377372           0.6613319371513341 1.0000   
         C         C         1.0       0.0033503778441177356         0.30875040474958093          0.6447462271770088 1.0000   
         C         C         1.0       0.009971857355983937          0.2702958019394157 0.6578698463175935 1.0000   
         H         H         1.0       0.9744350034484638  0.3196498937592468  0.6423766459583539 1.0000   
         H         H         1.0       0.01197037685407687           0.3067358020350057 0.6193205637241371 1.0000   
         H         H         1.0       0.03768356984366927           0.264184968635496  0.6562234142991856 1.0000   
         H         H         1.0       0.9975363439653093  0.24998726249408365           0.6413147900133326 1.0000   
         C         C         1.0       0.13182720686514157           0.5253402974876294 0.6648222361031118 1.0000   
         C         C         1.0       0.10595047143449172           0.5359800290912564 0.6379160388299495 1.0000   
         H         H         1.0       0.13156850544021514           0.5466678093193017 0.6814602911373853 1.0000   
         H         H         1.0       0.16220354777945173           0.5285704961474096 0.6576969006725327 1.0000   
         H         H         1.0       0.11094632123179794           0.5644856379496727 0.6322631493287074 1.0000   
         H         H         1.0       0.07721109713118988           0.5348741863278863 0.6469967947893199 1.0000   
         C         C         1.0       0.3694063173724249  0.3555960220292604  0.8127535290829974 1.0000   
         C         C         1.0       0.3694148970135503  0.38415958357498386           0.839174736910077  1.0000   
         H         H         1.0       0.38082238858807477           0.37058210883235654          0.791487129343667  1.0000   
         H         H         1.0       0.38824968420315686           0.33304721879509414          0.8192642758269726 1.0000   
         H         H         1.0       0.3543061792209717  0.40999487040540555           0.831684706149017  1.0000   
         H         H         1.0       0.39830016577283217           0.39204887131388655          0.8445001890160421 1.0000   
         C         C         1.0       0.11340747886419367           0.27422569336650565          0.8845278785817561 1.0000   
         C         C         1.0       0.07794950841911152           0.2938144634468873 0.8752305083965193 1.0000   
         H         H         1.0       0.11052200714935267           0.2451910284330843 0.8898979198615012 1.0000   
         H         H         1.0       0.12152101806872562           0.28383606827709124          0.9079441373244371 1.0000   
         H         H         1.0       0.06775857500308846           0.2838556257033852 0.8543862558182891 1.0000   
         H         H         1.0       0.08516129194813549           0.3213595561701644 0.8664535664035828 1.0000   
         C         C         1.0       0.4716484792747273  0.33281405772268385           0.8506617194692507 1.0000   
         C         C         1.0       0.46182692418427146           0.29310983616228964          0.8593253480566532 1.0000   
         H         H         1.0       0.4730653261047605  0.35043716515117784           0.871840479367002  1.0000   
         H         H         1.0       0.4443705458348193  0.342613145239534   0.8415069808073713 1.0000   
         H         H         1.0       0.436541275644272   0.2938919231370163  0.8736839006643928 1.0000   
         H         H         1.0       0.483429888638155   0.2852798809685191  0.8773562346133749 1.0000   
         C         C         1.0       0.5241578640599134  0.2854359204431759  0.4665152172226655 1.0000   
         C         C         1.0       0.5253526934421134  0.24460057615630545           0.45760502321220486          1.0000   
         H         H         1.0       0.4954897000215833  0.29171712392174837           0.47271689105196574          1.0000   
         H         H         1.0       0.5297408867419552  0.3014809134723838  0.44568263264551   1.0000   
         H         H         1.0       0.5541409953857677  0.23507183987505983           0.45649811529292955          1.0000   
         H         H         1.0       0.514299643550889   0.24330599927335148           0.43361297492306194          1.0000   
         C         C         1.0       0.6151580431774957  0.23172458320894126           0.6603550135843599 1.0000   
         C         C         1.0       0.6303543709248047  0.23391056217092315           0.6941552931806424 1.0000   
         H         H         1.0       0.5858988628098     0.23466940049458163           0.6650460394669573 1.0000   
         H         H         1.0       0.617144046706683   0.2026274835885566  0.6506946803796404 1.0000   
         H         H         1.0       0.6603460691949335  0.2288435656774555  0.6961939510888231 1.0000   
         H         H         1.0       0.6146139874042997  0.21353261973776025           0.7080035344774569 1.0000   
         C         C         1.0       0.37367815059907233           0.7682633610026718 0.8311279076874886 1.0000   
         C         C         1.0       0.331999179236201   0.7670769069001266  0.8348084475245773 1.0000   
         H         H         1.0       0.3826891316207514  0.7914516869549979  0.8451002017007497 1.0000   
         H         H         1.0       0.38226167858890825           0.7461753805025361 0.8451089466341489 1.0000   
         H         H         1.0       0.3212635732799489  0.7756537995650779  0.8585133437714052 1.0000   
         H         H         1.0       0.3198741275782062  0.7379726073789352  0.8358304786164139 1.0000   
         C         C         1.0       0.580801931037773   0.5149768270134754  0.6773371358197223 1.0000   
         C         C         1.0       0.5605419485198165  0.4773460428925658  0.6696069882545048 1.0000   
         H         H         1.0       0.5850343508688187  0.5285625319983176  0.6551468961124038 1.0000   
         H         H         1.0       0.6082459637139465  0.513704167023486   0.6880886812259934 1.0000   
         H         H         1.0       0.5681047597353762  0.46747422417248236           0.6468473306498712 1.0000   
         H         H         1.0       0.5299840244093217  0.48204310862239247           0.6675001738368641 1.0000   
         C         C         1.0       0.3533394330856552  0.8161298429771272  0.41370439465261344          1.0000   
         C         C         1.0       0.395780385782581   0.8095158405900635  0.4182522194439131 1.0000   
         H         H         1.0       0.34000394872695816           0.7956741944113962 0.39905187395129393          1.0000   
         H         H         1.0       0.34993803881816604           0.8410130963620697 0.4015576004245254 1.0000   
         H         H         1.0       0.40481335414981795           0.8329426542629913 0.43078515950497415          1.0000   
         H         H         1.0       0.4081012810067565  0.8123660692201544  0.39586267962372446          1.0000   
         C         C         1.0       0.6271779080332653  0.5233103947713914  0.5694749479735912 1.0000   
         C         C         1.0       0.6134851668663021  0.4925294632661024  0.5898402193433039 1.0000   
         H         H         1.0       0.6525246354468242  0.5165496543610989  0.555676009597128  1.0000   
         H         H         1.0       0.6349926425762984  0.5467237189794522  0.585234687682902  1.0000   
         H         H         1.0       0.5816307090648526  0.4972382621254167  0.5952824428693638 1.0000   
         H         H         1.0       0.6258932836196291  0.4976150728686631  0.6130526340919816 1.0000   
         C         C         1.0       0.31521034859114716           0.7503413104742909 0.6046851463730527 1.0000   
         C         C         1.0       0.33459486779572606           0.7885192556739603 0.6113369069095661 1.0000   
         H         H         1.0       0.28616855071276404           0.7570661724268631 0.5992145224020632 1.0000   
         H         H         1.0       0.3148607167149837  0.7355609190137297  0.6267154436243143 1.0000   
         H         H         1.0       0.314764450633618   0.8084438914908402  0.6226838434101313 1.0000   
         H         H         1.0       0.3420270245066396  0.804556623395761   0.5904549707490789 1.0000   
         C         C         1.0       0.8464897134511585  0.9796855264444984  0.8639099543983336 1.0000   
         C         C         1.0       0.8475189319324207  0.022832436716969218         0.8575937574695951 1.0000   
         H         H         1.0       0.8747078271466374  0.9697301634060452  0.8623054433955923 1.0000   
         H         H         1.0       0.8423642897808484  0.9760061443927824  0.8892027875447074 1.0000   
         H         H         1.0       0.8675531812771611  0.035056962458207774         0.8754048721840606 1.0000   
         H         H         1.0       0.819549141516986   0.03740100527650325           0.8610905840627789 1.0000   
         C         C         1.0       0.6070412326840123  0.8338379256507413  0.7025389748084688 1.0000   
         C         C         1.0       0.5755425232889558  0.8518878927212745  0.6823993173968609 1.0000   
         H         H         1.0       0.6344380961277345  0.845426291255526   0.6959900105431237 1.0000   
         H         H         1.0       0.6106892684990655  0.8051139307952344  0.6935110815942299 1.0000   
         H         H         1.0       0.577433413198701   0.8468230535804376  0.6579513706015293 1.0000   
         H         H         1.0       0.5749116357974232  0.8825675108324499  0.6857681404780485 1.0000   
         C         C         1.0       0.871518144280643   0.8734178570301769  0.4738133178043962 1.0000   
         C         C         1.0       0.9116563013537722  0.8849739569282209  0.4823274649809421 1.0000   
         H         H         1.0       0.8729208934327577  0.849085344973986   0.45828291198807264          1.0000   
         H         H         1.0       0.8635046503313698  0.8944064899217137  0.4578210364658125 1.0000   
         H         H         1.0       0.921363318273157   0.8627370715991909  0.4975847323842829 1.0000   
         H         H         1.0       0.9284181194691515  0.879173210157373   0.46147412843510494          1.0000   
         C         C         1.0       0.5513245133628075  0.8211086038197626  0.5946041561417432 1.0000   
         C         C         1.0       0.509312013576927   0.8257574307030259  0.5975441067769337 1.0000   
         H         H         1.0       0.5558169116965489  0.7925302857376416  0.6029940908174635 1.0000   
         H         H         1.0       0.5678705348817376  0.8414568726794991  0.6091534144530597 1.0000   
         H         H         1.0       0.5036169647204327  0.853898142436726   0.5896992345771334 1.0000   
         H         H         1.0       0.5036829599751909  0.8260337800676313  0.6223897608404276 1.0000   
         C         C         1.0       0.7268397310217927  0.9654409132221579  0.6488737395270483 1.0000   
         C         C         1.0       0.7009835873540113  0.9643444365984546  0.6746851041515631 1.0000   
         H         H         1.0       0.7549186865081935  0.9741933291284226  0.6584897294508134 1.0000   
         H         H         1.0       0.7169590260990818  0.9851774405112984  0.6321903120604443 1.0000   
         H         H         1.0       0.6744255237320935  0.9594302829216871  0.6652319397050387 1.0000   
         H         H         1.0       0.6968210103445663  0.992600502249815   0.6835107051903762 1.0000   
         C         C         1.0       0.0334185261659401  0.459850576541806   0.869427627455813  1.0000   
         C         C         1.0       0.043391500481881895          0.4201521524676257 0.8617069703919333 1.0000   
         H         H         1.0       0.06010761720834856           0.47527229916521835          0.8724044429455926 1.0000   
         H         H         1.0       0.02254230300726956           0.460615472392584  0.8925664036876438 1.0000   
         H         H         1.0       0.01780186838200315           0.40280930087863787          0.8669402425033125 1.0000   
         H         H         1.0       0.0661116429922568  0.40782328316645466           0.877124215651949  1.0000   
         C         C         1.0       0.7827846067057105  0.7299648914207155  0.7165353532608557 1.0000   
         C         C         1.0       0.7917608701834522  0.7700007984086724  0.71301827031785   1.0000   
         H         H         1.0       0.7527595137416532  0.7237012855231348  0.7206322138201008 1.0000   
         H         H         1.0       0.7831105875921257  0.7129744220202963  0.6943512676124627 1.0000   
         H         H         1.0       0.7777061141405451  0.7772467308394921  0.6910078287547966 1.0000   
         H         H         1.0       0.8222312104681301  0.7739703520497206  0.7080959908475535 1.0000   
         C         C         1.0       0.7883297047441429  0.42205073210935995           0.7150504357573221 1.0000   
         C         C         1.0       0.8320540013605429  0.41558732112471697           0.7175897249551018 1.0000   
         H         H         1.0       0.7759928575417465  0.39676781162517255           0.7055558747052264 1.0000   
         H         H         1.0       0.7824065570489769  0.4423143353549121  0.6966428378582149 1.0000   
         H         H         1.0       0.8410825791439017  0.4135033441155855  0.6936277934850499 1.0000   
         H         H         1.0       0.8374426539966776  0.3886763726113428  0.7303693300247642 1.0000   
         C         C         1.0       0.09933187246587538           0.5609784736671246 0.44342838166262577          1.0000   
         C         C         1.0       0.08347913993978806           0.5925331850223244 0.46177439662686504          1.0000   
         H         H         1.0       0.0837607708793604  0.5573772537248719  0.4193875958998473 1.0000   
         H         H         1.0       0.1285561256318679  0.5688295259854724  0.4353694637886873 1.0000   
         H         H         1.0       0.07864640069773965           0.6163435678506489 0.4460555184604577 1.0000   
         H         H         1.0       0.10231301431024886           0.6014962630567082 0.4802880834971239 1.0000   
         C         C         1.0       0.7933215623501505  0.6831908583026792  0.6263467321539227 1.0000   
         C         C         1.0       0.7559266547293214  0.7046262520349552  0.6305072669145425 1.0000   
         H         H         1.0       0.789697451719753   0.659823993972232   0.6432906308323099 1.0000   
         H         H         1.0       0.8178047636923054  0.7003594675808649  0.6357341483108633 1.0000   
         H         H         1.0       0.7465005882143337  0.7079155990142145  0.6548995398345568 1.0000   
         H         H         1.0       0.7331629681615541  0.6866094126855281  0.6217631113034976 1.0000   
         C         C         1.0       0.9069480111063998  0.3722586580406033  0.4642171389221846 1.0000   
         C         C         1.0       0.921470326484584   0.40223724845559944           0.4429904713933635 1.0000   
         H         H         1.0       0.9229691089238823  0.3729617090656899  0.4858658126058821 1.0000   
         H         H         1.0       0.9101816602654149  0.34840873121780896           0.45070400746033057          1.0000   
         H         H         1.0       0.903609101285722   0.40358762607351556           0.42239437970561416          1.0000   
         H         H         1.0       0.9475341950346071  0.3919688725492755  0.430781001791778  1.0000   
         C         C         1.0       0.9276686612421373  0.5332482114688254  0.6355908669181008 1.0000   
         C         C         1.0       0.9679852058739433  0.5383384525975737  0.6498066141422734 1.0000   
         H         H         1.0       0.9157400505856336  0.5075347407541864  0.6419039924306119 1.0000   
         H         H         1.0       0.9058664053606698  0.551579447381016   0.6448418324805626 1.0000   
         H         H         1.0       0.983361619720356   0.5149818474504501  0.6398393246618979 1.0000   
         H         H         1.0       0.9825380926688709  0.5604911313639787  0.6410860360612332 1.0000   
         C         C         1.0       0.48568337272093265           0.24477662341873588          0.9755249981976396 1.0000   
         C         C         1.0       0.49374171669887695           0.23245084673551714          0.008941850240541616         1.0000   
         H         H         1.0       0.4625294547223921  0.22792416739982385           0.9677401871416912 1.0000   
         H         H         1.0       0.5116937717321153  0.23637979975349563           0.9616679402866795 1.0000   
         H         H         1.0       0.5204411432294024  0.2456957099675193  0.019584741748869705         1.0000   
         H         H         1.0       0.49887506692815325           0.20264161026764657          0.007280669270304685         1.0000   
         C         C         1.0       0.3393192536762675  0.5186364469524273  0.7657540653394517 1.0000   
         C         C         1.0       0.32784197496694084           0.5314219644866217 0.7969939629421255 1.0000   
         H         H         1.0       0.31396223997301237           0.5239828468199582 0.7496727941366418 1.0000   
         H         H         1.0       0.34031168863485695           0.48888901758275694          0.76496023980516   1.0000   
         H         H         1.0       0.3026407373587936  0.5149771565179474  0.8045092810909091 1.0000   
         H         H         1.0       0.3188814875447831  0.5603372068974518  0.7962479120410382 1.0000   
         C         C         1.0       0.5861017376199099  0.5561479910046031  0.8359797089816952 1.0000   
         C         C         1.0       0.6172740433728642  0.5657074995423433  0.8601053761958869 1.0000   
         H         H         1.0       0.5832559633979383  0.580686858448719   0.8205334370696671 1.0000   
         H         H         1.0       0.5984613622520911  0.5320413689770132  0.8216718636510701 1.0000   
         H         H         1.0       0.6063123170206469  0.5652281026741297  0.8829554711787152 1.0000   
         H         H         1.0       0.6249883825647259  0.5942084068096404  0.8571140738784295 1.0000   
         C         C         1.0       0.534611177295704   0.2782768552384267  0.20128634233903894          1.0000   
         C         C         1.0       0.5096163751353118  0.2507069307729623  0.1833275968234444 1.0000   
         H         H         1.0       0.5632088474899809  0.2740380576329251  0.19421837150996973          1.0000   
         H         H         1.0       0.5388775864548532  0.2666206335666267  0.225228688768342  1.0000   
         H         H         1.0       0.523476573818833   0.2234440299278741  0.18395825026331056          1.0000   
         H         H         1.0       0.5106861399047892  0.2537680810658563  0.15875399719469566          1.0000   
         C         C         1.0       0.3925196077274227  0.47207007733833894           0.10957939299852203          1.0000   
         C         C         1.0       0.368953480008259   0.44215965181631456           0.09373410615811562          1.0000   
         H         H         1.0       0.41220509156199253           0.4858155710876417 0.09460892802507502          1.0000   
         H         H         1.0       0.3712598499387415  0.4930106869194661  0.11500881068577361          1.0000   
         H         H         1.0       0.36236328145626895           0.42040842634368925          0.11013100689035671          1.0000   
         H         H         1.0       0.3420327120717219  0.45470607713353184           0.08967886785246382          1.0000   
         C         C         1.0       0.4189464586810093  0.4364105621958467  0.4790475580617018 1.0000   
         C         C         1.0       0.3877988172155502  0.44319236769757037           0.45287873443257276          1.0000   
         H         H         1.0       0.4345654475975206  0.41357703758969133           0.47264448104629886          1.0000   
         H         H         1.0       0.4059559102503782  0.4265588393535078  0.49970795892035913          1.0000   
         H         H         1.0       0.36816754755519043           0.4649837237158598 0.4592520924412398 1.0000   
         H         H         1.0       0.3682544096791844  0.41879476183018516           0.4508775165781345 1.0000   
         C         C         1.0       0.6363124418286373  0.47706137504205565           0.43025035618579044          1.0000   
         C         C         1.0       0.6004897382321743  0.4544386947649943  0.43201242421143177          1.0000   
         H         H         1.0       0.6420234532526022  0.4776845394900161  0.4048871071325034 1.0000   
         H         H         1.0       0.6347982444603383  0.5076695049779647  0.4357975756416004 1.0000   
         H         H         1.0       0.585026133242268   0.458557670423388   0.4523664805807491 1.0000   
         H         H         1.0       0.6088243555931478  0.42512831749916963           0.4314110951243063 1.0000   
         C         C         1.0       0.8984369912851656  0.5625988508997997  0.9604021598243856 1.0000   
         C         C         1.0       0.9405623228018902  0.5719464693201449  0.970888592312281  1.0000   
         H         H         1.0       0.8931818806927267  0.5361837889591206  0.9494702680918158 1.0000   
         H         H         1.0       0.8887524095092362  0.5784461462479408  0.9422625673867289 1.0000   
         H         H         1.0       0.9414352246321518  0.595608791522683   0.9870816123506199 1.0000   
         H         H         1.0       0.9572910691116379  0.5790709972744861  0.9513859418739689 1.0000   
         C         C         1.0       0.7334071828657068  0.5833366401920073  0.9101255195097704 1.0000   
         C         C         1.0       0.7452668053608961  0.6243595237820189  0.9176491095053275 1.0000   
         H         H         1.0       0.7541296168010939  0.568352238488124   0.8971153082907518 1.0000   
         H         H         1.0       0.710505816885134   0.5808452535350328  0.894021731101451  1.0000   
         H         H         1.0       0.7191001601513519  0.6407154564244182  0.9139307593814552 1.0000   
         H         H         1.0       0.751968117678388   0.6320699741753133  0.9425348400370464 1.0000   
         C         C         1.0       0.7815060809643869  0.37818539381299177           0.9703260411428277 1.0000   
         C         C         1.0       0.8016456604210043  0.39135993759440896           0.9411596863499865 1.0000   
         H         H         1.0       0.7991029264378547  0.3681665695052809  0.9866711319376995 1.0000   
         H         H         1.0       0.7616875198817353  0.3551511117672232  0.9653089483465429 1.0000   
         H         H         1.0       0.8193908345526082  0.41381712983158053           0.9497235637201548 1.0000   
         H         H         1.0       0.8193377429401761  0.3707770208200671  0.9295886494564064 1.0000   
         C         C         1.0       0.5734132653932636  0.4978373338126468  0.092002129898761  1.0000   
         C         C         1.0       0.551604057529654   0.46155708703795856           0.09235581416805316          1.0000   
         H         H         1.0       0.581804154132826   0.5045810554212161  0.11667590538269734          1.0000   
         H         H         1.0       0.555306698582718   0.5215360211791414  0.08651563690808439          1.0000   
         H         H         1.0       0.5309440936515137  0.46549744726420716           0.10945442731798427          1.0000   
         H         H         1.0       0.5691908095301688  0.44200621789961275           0.10391625979425956          1.0000   
         C         C         1.0       0.950399242731846   0.5705768900036176  0.3756341744517281 1.0000   
         C         C         1.0       0.9121312990940806  0.5625697745679483  0.3918233597543563 1.0000   
         H         H         1.0       0.9668172223689281  0.5843974960381686  0.39436997360724674          1.0000   
         H         H         1.0       0.9439512856249814  0.5911783670972793  0.3560591066690931 1.0000   
         H         H         1.0       0.9057648945801321  0.5822040402534232  0.4097689656567063 1.0000   
         H         H         1.0       0.9165441338854777  0.5357666225437262  0.40455163592591736          1.0000   
         C         C         1.0       0.6304106982496969  0.5520475052782299  0.18810149767176565          1.0000   
         C         C         1.0       0.5893922723156547  0.5547691745668301  0.17657450065630986          1.0000   
         H         H         1.0       0.6497755907679004  0.5314244340636888  0.17518088947406477          1.0000   
         H         H         1.0       0.6447671325588208  0.5792560492554796  0.1864518623274182 1.0000   
         H         H         1.0       0.586388120113931   0.5598967913282378  0.15216633218218845          1.0000   
         H         H         1.0       0.5729660844924472  0.5795370144821795  0.18758154127019316          1.0000   
         C         C         1.0       0.9426090716947702  0.5374083056866514  0.1722257273288413 1.0000   
         C         C         1.0       0.9340839243223726  0.5011711382871656  0.18703021046785406          1.0000   
         H         H         1.0       0.9681527684829988  0.5334342459796185  0.1614020706493679 1.0000   
         H         H         1.0       0.949454470412171   0.5596957978131608  0.19063253471974342          1.0000   
         H         H         1.0       0.9607710766889673  0.4854348092673474  0.19554216340768554          1.0000   
         H         H         1.0       0.9195728429771871  0.48312427750632114           0.16897586378963533          1.0000   
         C         C         1.0       0.6460435481156269  0.5837807406728158  0.42823426570061957          1.0000   
         C         C         1.0       0.6599850786844212  0.6231160483389124  0.4284804567338633 1.0000   
         H         H         1.0       0.6151427582211184  0.5863411906607116  0.428720622268243  1.0000   
         H         H         1.0       0.6520153531619225  0.5687684209040692  0.4505422617922063 1.0000   
         H         H         1.0       0.6603890808483176  0.6345858294344365  0.4069087573894967 1.0000   
         H         H         1.0       0.6423854633764845  0.6445053665003274  0.43731104440202134          1.0000   
         C         C         1.0       0.6664782132413128  0.3222530259881454  0.35310495428846217          1.0000   
         C         C         1.0       0.6381513128296707  0.3547096726325871  0.3461987019647599 1.0000   
         H         H         1.0       0.6825063572560874  0.3240960710604881  0.3326058729348518 1.0000   
         H         H         1.0       0.6505906764804654  0.2973864842537537  0.35345106700920864          1.0000   
         H         H         1.0       0.618105617533236   0.3589619470280135  0.36493071203146454          1.0000   
         H         H         1.0       0.6180061517511508  0.34740318976288365           0.32858791401748866          1.0000   
         C         C         1.0       0.6778666465368731  0.02634667347727615           0.9229757775182216 1.0000   
         C         C         1.0       0.7081205341061184  0.011074668905778573         0.9011447302654346 1.0000   
         H         H         1.0       0.6495158668388262  0.02977165902402934           0.9102181938644032 1.0000   
         H         H         1.0       0.6843972216553964  0.055075941545472906         0.927819120136851  1.0000   
         H         H         1.0       0.7027185566634535  0.019766866993195853         0.8771746411123554 1.0000   
         H         H         1.0       0.7043927167834696  0.9810705406150793  0.8962763853503077 1.0000   
         C         C         1.0       0.6650212408715477  0.69986499462994    0.9075547579314753 1.0000   
         C         C         1.0       0.6279604585343886  0.7155180452657723  0.919727392260678  1.0000   
         H         H         1.0       0.667017288295432   0.6705086094365362  0.914731688717932  1.0000   
         H         H         1.0       0.6665514386247423  0.69782927395477    0.8827297290268905 1.0000   
         H         H         1.0       0.6287659877465316  0.7191920120677451  0.944660743867081  1.0000   
         H         H         1.0       0.6050019581668876  0.6945061886965541  0.9168643165676961 1.0000   
         C         C         1.0       0.9212376150617055  0.8065522384255075  0.9145376578114573 1.0000   
         C         C         1.0       0.9258792011970123  0.8005333317015765  0.8790875322035939 1.0000   
         H         H         1.0       0.9340345894894768  0.8333833904229778  0.9217004511677903 1.0000   
         H         H         1.0       0.938958410829629   0.7853704328325782  0.9259004244282021 1.0000   
         H         H         1.0       0.9560413402709762  0.8028576765008393  0.8728950627371034 1.0000   
         H         H         1.0       0.9102515881564072  0.8241145932021177  0.8666817183924372 1.0000   
         C         C         1.0       0.7917561388337857  0.7715680417203024  0.10105244188824747          1.0000   
         C         C         1.0       0.8287827684625496  0.7510303762644265  0.11332374487612595          1.0000   
         H         H         1.0       0.7931164567378141  0.7984702700710955  0.11331570419380399          1.0000   
         H         H         1.0       0.7650952356591711  0.7550448914213513  0.10974699890114481          1.0000   
         H         H         1.0       0.8299172743749205  0.7482961037171391  0.1380580482384226 1.0000   
         H         H         1.0       0.8565746229184661  0.7642631294625979  0.1065064044921602 1.0000   
         C         C         1.0       0.7033235761579574  0.05237263622215371           0.29429155083866015          1.0000   
         C         C         1.0       0.7414316468328175  0.06261827314062973           0.311771228735551  1.0000   
         H         H         1.0       0.6927902360465875  0.07571779385268562           0.28097068906436873          1.0000   
         H         H         1.0       0.6816362323174039  0.05282918590763663           0.3113269546933754 1.0000   
         H         H         1.0       0.7330125405904606  0.0826363804682213  0.3298848732396636 1.0000   
         H         H         1.0       0.7534020983683816  0.03965087260299471           0.3245383403242531 1.0000   
         C         C         1.0       0.8116821514318724  0.7005413600389736  0.19046340387012572          1.0000   
         C         C         1.0       0.8463630883215763  0.6778338449157069  0.19504379627875473          1.0000   
         H         H         1.0       0.7901095364902699  0.6840180782067425  0.1770491851567432 1.0000   
         H         H         1.0       0.8162082271779435  0.7237098397695998  0.1763930296696016 1.0000   
         H         H         1.0       0.8683629567781355  0.6955859483714466  0.20330845495629332          1.0000   
         H         H         1.0       0.8556685365015269  0.6695324771344746  0.17198207442021327          1.0000   
         C         C         1.0       0.8271383093878331  0.9089359171313899  0.13665913351962933          1.0000   
         C         C         1.0       0.8181165518297444  0.9377169932212707  0.1132192767190787 1.0000   
         H         H         1.0       0.8554367624202568  0.9160722590547954  0.14881640807363736          1.0000   
         H         H         1.0       0.8324702243937994  0.8817405365559738  0.1272536338302479 1.0000   
         H         H         1.0       0.8405646104195876  0.9399217540059043  0.09816398496485346          1.0000   
         H         H         1.0       0.8145427989576675  0.9639712411573034  0.12707490982523528          1.0000   
         C         C         1.0       0.6434025773976235  0.7012958870771879  0.3768330708609243 1.0000   
         C         C         1.0       0.6078818140280693  0.721444176308824   0.38682868731148456          1.0000   
         H         H         1.0       0.6347672348288272  0.6744030202981661  0.3658725026432913 1.0000   
         H         H         1.0       0.6634061372866376  0.697345263894553   0.39596465450030677          1.0000   
         H         H         1.0       0.5907594963547477  0.7014611564907954  0.40114120990805185          1.0000   
         H         H         1.0       0.5867572047511452  0.7289774229777161  0.36807720993279947          1.0000   
         C         C         1.0       0.8353872205019157  0.8037146512869505  0.4100685499500835 1.0000   
         C         C         1.0       0.8108746787167289  0.7950850914481128  0.4386816730749338 1.0000   
         H         H         1.0       0.8642964441804482  0.7945797820064231  0.4122696497787793 1.0000   
         H         H         1.0       0.8389933674917911  0.833891101429428   0.4104226130373341 1.0000   
         H         H         1.0       0.824187929190764   0.8083225176942285  0.4592939832843389 1.0000   
         H         H         1.0       0.7842555555595234  0.8096117192205483  0.43970832195738807          1.0000   
         C         C         1.0       0.20849749935212766           0.7737548750444497 0.9482984020951434 1.0000   
         C         C         1.0       0.21566301092109175           0.8148525521815403 0.9340459448966617 1.0000   
         H         H         1.0       0.21360480973341137           0.7554903453101199 0.9309470379496689 1.0000   
         H         H         1.0       0.17899140810819342           0.769876390801265  0.9556882141009511 1.0000   
         H         H         1.0       0.19422646378528793           0.8154379989082692 0.9139556031664001 1.0000   
         H         H         1.0       0.24442956826690285           0.8164164414215909 0.9257079652994824 1.0000   
         C         C         1.0       0.44159550108832785           0.928261675207631  0.8814104988916366 1.0000   
         C         C         1.0       0.45428937120062957           0.9116424055054848 0.8490878819695328 1.0000   
         H         H         1.0       0.4541493741375526  0.9538895747116672  0.8908637395095285 1.0000   
         H         H         1.0       0.4120597469446135  0.9344868628434326  0.8775595126341338 1.0000   
         H         H         1.0       0.4557739563289367  0.933614131185914   0.8324477662454517 1.0000   
         H         H         1.0       0.43293604113629575           0.8901561769860842 0.8418621424344841 1.0000   
         C         C         1.0       0.49598717640104756           0.7221903164082784 0.8591290105933728 1.0000   
         C         C         1.0       0.5052636630541398  0.6814427054749683  0.8684432764869632 1.0000   
         H         H         1.0       0.4721377324781881  0.7217751130885645  0.8422511555314878 1.0000   
         H         H         1.0       0.5198696860702953  0.7335622558762553  0.8464707287773594 1.0000   
         H         H         1.0       0.5344282123843789  0.6795478022811715  0.8779148649983808 1.0000   
         H         H         1.0       0.4900691855550027  0.6730787187559378  0.8895376507153706 1.0000   
         C         C         1.0       0.5569691002032193  0.809264396189441   0.08150306783075956          1.0000   
         C         C         1.0       0.5775976451287693  0.8445133239866573  0.09572316276841586          1.0000   
         H         H         1.0       0.5809433647238809  0.7910692596013602  0.07874780375557444          1.0000   
         H         H         1.0       0.5411208961747586  0.7961606410537925  0.09984451693327312          1.0000   
         H         H         1.0       0.5908474752452968  0.8363264938670999  0.11898481599269828          1.0000   
         H         H         1.0       0.5532180151528785  0.8639973948914628  0.1001280592804834 1.0000   
         C         C         1.0       0.4190825740950955  0.5664500661124969  0.023520040491319394         1.0000   
         C         C         1.0       0.38377703588165607           0.5766481437977095 0.04287914876164711          1.0000   
         H         H         1.0       0.4286433880519184  0.5396771072952262  0.032023760032963366         1.0000   
         H         H         1.0       0.4434064779761031  0.5847389535834905  0.02941379549331491          1.0000   
         H         H         1.0       0.39084376922594505           0.5706833759582478 0.06771148792214299          1.0000   
         H         H         1.0       0.361702644485284   0.5566645688318991  0.036730952203708034         1.0000   
         C         C         1.0       0.22228868458187095           0.8405380927767953 0.3941292781887696 1.0000   
         C         C         1.0       0.1820176587245552  0.8322395886325288  0.3857488770954453 1.0000   
         H         H         1.0       0.22820418729766462           0.8339768334227552 0.4185269453811666 1.0000   
         H         H         1.0       0.22505499576249663           0.8701271028232598 0.39337362335287623          1.0000   
         H         H         1.0       0.16361503121379975           0.845949991237611  0.40186701823763665          1.0000   
         H         H         1.0       0.177067120848676   0.803703294065986   0.38964204648935186          1.0000   
         C         C         1.0       0.5453291345263325  0.8420969399226641  0.18080506870594074          1.0000   
         C         C         1.0       0.5544964769464503  0.8815110866420631  0.17105510154987016          1.0000   
         H         H         1.0       0.5701611647034744  0.8248862962164022  0.1770858824711386 1.0000   
         H         H         1.0       0.5251451254783036  0.8313335272254299  0.16319198100934165          1.0000   
         H         H         1.0       0.5549976619569771  0.8842483052549622  0.14611086626071254          1.0000   
         H         H         1.0       0.532589507817569   0.9014363232734006  0.17979006287659974          1.0000   
         C         C         1.0       0.4334406619849039  0.6246020140180167  0.30632597773102593          1.0000   
         C         C         1.0       0.4122199978658607  0.6394236404867063  0.33277107125811195          1.0000   
         H         H         1.0       0.4572434713940285  0.643181885046283   0.30374754823068806          1.0000   
         H         H         1.0       0.4163577471981806  0.626350501400839   0.28569971379772824          1.0000   
         H         H         1.0       0.43305184994486123           0.6444339552815997 0.3503605097406882 1.0000   
         H         H         1.0       0.39610926037128763           0.6197720068255946 0.34581579985016025          1.0000   
         C         C         1.0       0.275737927176697   0.7564803562001362  0.18688885929265345          1.0000   
         C         C         1.0       0.30989952069493243           0.7352785299429063 0.1729230594019205 1.0000   
         H         H         1.0       0.25046130959135415           0.7400357574163392 0.18506976172687198          1.0000   
         H         H         1.0       0.2679468360898151  0.7806643322113531  0.17347141828645235          1.0000   
         H         H         1.0       0.3090308268226948  0.706035293754267   0.17841529613528465          1.0000   
         H         H         1.0       0.33513647662915363           0.7458376735182567 0.18388301599778653          1.0000   
         C         C         1.0       0.569900813610872   0.951233381251708   0.3603577552632665 1.0000   
         C         C         1.0       0.5690451851820707  0.9603105095045524  0.3960094055306736 1.0000   
         H         H         1.0       0.5615332050117497  0.9742648933731017  0.3463933100923874 1.0000   
         H         H         1.0       0.5991354541326082  0.9468244446361096  0.3545305111182208 1.0000   
         H         H         1.0       0.5395400608277707  0.966663765893482   0.3986231757463246 1.0000   
         H         H         1.0       0.5858540228278339  0.9848318424381268  0.4005759664999692 1.0000   
         C         C         1.0       0.497820274040443   0.69113021117752    0.3870715269857188 1.0000   
         C         C         1.0       0.5185711341188806  0.6570000540790436  0.3751671376599332 1.0000   
         H         H         1.0       0.5069964753869495  0.7008368016985592  0.4115954767627963 1.0000   
         H         H         1.0       0.46749319772284753           0.6826995763536612 0.3904772654133205 1.0000   
         H         H         1.0       0.5485043633983013  0.665056247930757   0.3695855902059189 1.0000   
         H         H         1.0       0.5036975456476787  0.6466330890321232  0.3539900640416248 1.0000

