data_0
_chemical_formula_sum                   'C1600 H1280'
_cell_length_a                          40.92522660298151
_cell_length_b                          40.82975457229177
_cell_length_c                          36.291055347411785
_cell_angle_alpha                       90.32818560832622
_cell_angle_beta                        91.15669528360104
_cell_angle_gamma                       89.32393464620077
_space_group_name_H-M_alt               'P 1'
_space_group_IT_number                  1
loop_
  _space_group_symop_operation_xyz
         'x, y, z' 
loop_
  _atom_site_type_symbol
  _atom_site_label
  _atom_site_symmetry_multiplicity
  _atom_site_fract_x
  _atom_site_fract_y
  _atom_site_fract_z
  _atom_site_occupancy
         C         C         1.0       0.5113998758558439  0.6042769134002389  0.6812537041329321 1.0000   
         C         C         1.0       0.5126429325882405  0.572368482312234   0.6669002046644844 1.0000   
         C         C         1.0       0.5206884317183487  0.5480364841534652  0.6892544682450445 1.0000   
         C         C         1.0       0.5265203660680023  0.550401730841842   0.7264278577960851 1.0000   
         C         C         1.0       0.5246281109006188  0.5822583708903946  0.7398369424454502 1.0000   
         C         C         1.0       0.517550942628136   0.6081331989111767  0.718182672106653  1.0000   
         H         H         1.0       0.5070942660291237  0.56435249522153    0.6384520712780084 1.0000   
         H         H         1.0       0.5260875999609275  0.5242350381219735  0.6769269305872159 1.0000   
         H         H         1.0       0.53227074384025    0.5891692716133872  0.7680846805534353 1.0000   
         H         H         1.0       0.5102267788989336  0.6302525150387264  0.7328848967742546 1.0000   
         C         C         1.0       0.5990822064799428  0.5509651188501348  0.7440722429990217 1.0000   
         C         C         1.0       0.5799970851759187  0.5228864444038454  0.7377491283030168 1.0000   
         C         C         1.0       0.5915211148276202  0.4996597795573832  0.7124258870911708 1.0000   
         C         C         1.0       0.6232249307040065  0.5018771475268808  0.6999173515494895 1.0000   
         C         C         1.0       0.1014437334673386  0.4462822771162739  0.6371529181442088 1.0000   
         C         C         1.0       0.07576704729342021           0.4644475825413793 0.6254417929155186 1.0000   
         C         C         1.0       0.5428890432267602  0.5206684809135814  0.752297082922646  1.0000   
         C         C         1.0       0.5270413711690318  0.4860673965868782  0.7482354137471416 1.0000   
         C         C         1.0       0.5420548349721258  0.45833514444546364           0.7620887411416275 1.0000   
         C         C         1.0       0.5303692711899861  0.42756193963793954           0.7517479072301212 1.0000   
         C         C         1.0       0.5012871850865568  0.4241831700048823  0.7340363086893301 1.0000   
         C         C         1.0       0.48368190275174594           0.4510811183960359 0.7231471783522028 1.0000   
         C         C         1.0       0.49674911407812483           0.4818756189501259 0.7300373144156987 1.0000   
         C         C         1.0       0.5654144812682635  0.5295517184213666  0.8191350100681746 1.0000   
         C         C         1.0       0.5609023292005637  0.5427266708372255  0.852795718535442  1.0000   
         C         C         1.0       0.5302994443152074  0.5526734509311607  0.8657066740828265 1.0000   
         C         C         1.0       0.504334471698681   0.544501968917433   0.8457100630180352 1.0000   
         C         C         1.0       0.5082542509072765  0.533159241509553   0.8101904721166097 1.0000   
         C         C         1.0       0.5381854164976902  0.5281391684526092  0.7943873516897509 1.0000   
         C         C         1.0       0.5259475918466294  0.5725751513217476  0.9026035583267402 1.0000   
         C         C         1.0       0.5360919314225088  0.49665208162735536           0.9861693763778522 1.0000   
         C         C         1.0       0.5638577037553272  0.5136635724950472  0.9768727000088143 1.0000   
         C         C         1.0       0.5619515881115651  0.5364507066350755  0.94952564282677   1.0000   
         C         C         1.0       0.5320830752085818  0.5419219929799581  0.9301468396479805 1.0000   
         C         C         1.0       0.5049307012525284  0.5248535784864446  0.941251818282186  1.0000   
         C         C         1.0       0.5080258472138739  0.5010953411781721  0.9671646415734061 1.0000   
         C         C         1.0       0.4951267940682513  0.5953312847629889  0.9049150282844011 1.0000   
         C         C         1.0       0.4835839136374886  0.6138894861328765  0.8739738564842442 1.0000   
         C         C         1.0       0.4557801037118447  0.6330506877620244  0.8763443208153248 1.0000   
         C         C         1.0       0.4407809562558913  0.6364526423253177  0.9098807933654296 1.0000   
         C         C         1.0       0.45294693657525176           0.6185675726667961 0.9411357084017102 1.0000   
         C         C         1.0       0.47997407154990535           0.598660541279319  0.9371858763250995 1.0000   
         C         C         1.0       0.5617253821189249  0.6112404064237228  0.9449726088512834 1.0000   
         C         C         1.0       0.5877432435617439  0.6330206396198245  0.9496319335812607 1.0000   
         C         C         1.0       0.601314424154526   0.6466766113071449  0.9193258446610332 1.0000   
         C         C         1.0       0.5905220127721006  0.6385606942110978  0.8841635368666771 1.0000   
         C         C         1.0       0.5655131649867606  0.6163830879733021  0.8792766498840775 1.0000   
         C         C         1.0       0.5531718755467203  0.6002466576988236  0.9092407798073023 1.0000   
         H         H         1.0       0.5908003829109135  0.5675826036746504  0.7659329085007731 1.0000   
         H         H         1.0       0.5759476261313928  0.4790369741789012  0.7021653528415426 1.0000   
         H         H         1.0       0.11638503874364607           0.4078248470099622 0.6738141423091375 1.0000   
         H         H         1.0       0.07902506365670203           0.4774868566745066 0.599963633089365  1.0000   
         H         H         1.0       0.5656303425055147  0.462367147907269   0.7764710417553287 1.0000   
         H         H         1.0       0.5478902510117477  0.4052357278221035  0.7548862483900781 1.0000   
         H         H         1.0       0.46132375071452264           0.44805545983179734          0.7093791306199017 1.0000   
         H         H         1.0       0.48142112524120934           0.5022960660025768 0.7222886994997941 1.0000   
         H         H         1.0       0.5900019997295904  0.5256364797661819  0.8117988395545194 1.0000   
         H         H         1.0       0.5841139990233355  0.5469600636768518  0.8672759899678492 1.0000   
         H         H         1.0       0.47879625293780453           0.5490513348375433 0.8544189729911335 1.0000   
         H         H         1.0       0.48533342077660335           0.5275087919724326 0.7926682119534804 1.0000   
         H         H         1.0       0.5857988810218372  0.5075553787746228  0.991198821877426  1.0000   
         H         H         1.0       0.5829065650662588  0.5528037714813943  0.9455581120640568 1.0000   
         H         H         1.0       0.4844316020248892  0.5296658417066282  0.9245957512943253 1.0000   
         H         H         1.0       0.48602667602748156           0.48613560604665657          0.9716361877723521 1.0000   
         H         H         1.0       0.49985059798932086           0.6145276407253648 0.8500015106916192 1.0000   
         H         H         1.0       0.4468852195973285  0.6467164783597584  0.8513869261636807 1.0000   
         H         H         1.0       0.4386926705363099  0.6223191053948559  0.9648701004604976 1.0000   
         H         H         1.0       0.48775658280916856           0.5842313533467787 0.9620085458606408 1.0000   
         H         H         1.0       0.5542936035251222  0.6001220069856952  0.970256583227585  1.0000   
         H         H         1.0       0.5954915093550368  0.6385223947607311  0.9777284781804993 1.0000   
         H         H         1.0       0.6034998420578682  0.6480891583428924  0.861747812635645  1.0000   
         H         H         1.0       0.5609264716577049  0.6089008355394065  0.8526623890759628 1.0000   
         C         C         1.0       0.2647634654448265  0.35255728687933097           0.2756993026568032 1.0000   
         C         C         1.0       0.24860102081814545           0.3814795518962551 0.2717056960675781 1.0000   
         C         C         1.0       0.22267727220418307           0.3886672285374233 0.2934409257490285 1.0000   
         C         C         1.0       0.21372438775191674           0.36853612154247134          0.32302796597539896          1.0000   
         C         C         1.0       0.2341162004432498  0.34174930108267193           0.32930693704700503          1.0000   
         C         C         1.0       0.25876947857457105           0.33350952637708886          0.3058854281593867 1.0000   
         H         H         1.0       0.2562373321810842  0.3986956322863474  0.2516012406677468 1.0000   
         H         H         1.0       0.209570537765892   0.41264980113119526           0.2886623699235823 1.0000   
         H         H         1.0       0.22843538124660526           0.3275282028936326 0.35329617844898337          1.0000   
         H         H         1.0       0.27226014906643065           0.3115218723561744 0.31173999384185413          1.0000   
         C         C         1.0       0.1613780699002445  0.3183800664231079  0.33466690417634415          1.0000   
         C         C         1.0       0.16381027155727304           0.34447552373178236          0.3584769911168769 1.0000   
         C         C         1.0       0.14650712139200744           0.3421125076387799 0.39110633515784954          1.0000   
         C         C         1.0       0.13450856287333496           0.31338619507665266          0.40218615685368764          1.0000   
         C         C         1.0       0.13541577507962085           0.28644491318145154          0.37959971179448604          1.0000   
         C         C         1.0       0.14610811824972214           0.28971344329909093          0.34524972002960025          1.0000   
         C         C         1.0       0.18273263502726167           0.3783718726072142 0.34655446500262116          1.0000   
         C         C         1.0       0.15189719179171796           0.39550515911443135          0.3270031667846502 1.0000   
         C         C         1.0       0.1331805590483544  0.41856582692397176           0.34409186100481315          1.0000   
         C         C         1.0       0.10687728541959986           0.43590196832445277          0.3275550559563344 1.0000   
         C         C         1.0       0.09972147231271665           0.4284627413283423 0.2915815110384877 1.0000   
         C         C         1.0       0.1162018730093453  0.40500832028245565           0.2733031566312119 1.0000   
         C         C         1.0       0.1418198711765795  0.3882252744609131  0.2908766066115344 1.0000   
         C         C         1.0       0.2163459875429585  0.3781649586222049  0.41003582327765653          1.0000   
         C         C         1.0       0.22787369348817615           0.3938891889665065 0.44006503144416353          1.0000   
         C         C         1.0       0.2250222114582923  0.4276686793021103  0.44371990200791256          1.0000   
         C         C         1.0       0.20772270072758908           0.44519165842095265          0.4154715385284594 1.0000   
         C         C         1.0       0.19811722544424062           0.4295811085358123 0.38430214536758106          1.0000   
         C         C         1.0       0.19820989009116213           0.3960450629321896 0.38122267083706646          1.0000   
         C         C         1.0       0.24072096576559046           0.44502545399356186          0.4789594642633888 1.0000   
         C         C         1.0       0.15420026819735777           0.4312063991613106 0.5499231512695926 1.0000   
         C         C         1.0       0.17726903259412707           0.40669500301218187          0.5475565023363396 1.0000   
         C         C         1.0       0.2038105981155992  0.4117022369588452  0.5236799570527445 1.0000   
         C         C         1.0       0.20895052937793235           0.44043428029336734          0.5046207578859468 1.0000   
         C         C         1.0       0.18381262874887938           0.4634604386789806 0.5058882090255692 1.0000   
         C         C         1.0       0.15785565257618778           0.4594086561603747 0.5290932465041169 1.0000   
         C         C         1.0       0.25361035819218647           0.48113290947471926          0.47024434986677643          1.0000   
         C         C         1.0       0.26940900127229767           0.4884041788650584 0.437108290065729  1.0000   
         C         C         1.0       0.2830346825619928  0.5187735416923593  0.4331132665727758 1.0000   
         C         C         1.0       0.2835024835819582  0.5415248606982196  0.4600867662948815 1.0000   
         C         C         1.0       0.26726315869991446           0.5350042327627149 0.4916257040399899 1.0000   
         C         C         1.0       0.2524610675318819  0.5055179622168422  0.49690361989927717          1.0000   
         C         C         1.0       0.2825723209031372  0.42945725020301595           0.5322145180300785 1.0000   
         C         C         1.0       0.30876002618188747           0.4128725935776063 0.5458109033198631 1.0000   
         C         C         1.0       0.33229087726502626           0.4012538131584426 0.5216519317688241 1.0000   
         C         C         1.0       0.32605062096572934           0.40426005153909295          0.48523934692271353          1.0000   
         C         C         1.0       0.29670651621054206           0.4163146072191316 0.4717768115325224 1.0000   
         C         C         1.0       0.27455314442033857           0.4298104304027975 0.49545606531093733          1.0000   
         H         H         1.0       0.16973928902640975           0.31919352510382526          0.3058938532065892 1.0000   
         H         H         1.0       0.13989746426750546           0.3651804011018957 0.4042738158943102 1.0000   
         H         H         1.0       0.12349130549285817           0.309483539099997  0.42794879596269797          1.0000   
         H         H         1.0       0.14446881404203507           0.2688621192292028 0.325961122164254  1.0000   
         H         H         1.0       0.1347702555759165  0.41791219149981385           0.3735050796914092 1.0000   
         H         H         1.0       0.09364084729564026           0.4534327751319876 0.34142257214236693          1.0000   
         H         H         1.0       0.11096305656454225           0.4000860669501633 0.24484518731498053          1.0000   
         H         H         1.0       0.15483916827437044           0.36895257422113586          0.2760902319240551 1.0000   
         H         H         1.0       0.22050464536439454           0.3519936566602973 0.4073263300808552 1.0000   
         H         H         1.0       0.2377885833795297  0.3799455944607747  0.4629117848531628 1.0000   
         H         H         1.0       0.20290398723449507           0.4707185455145651 0.41876533933026655          1.0000   
         H         H         1.0       0.18854861848838306           0.44342946336509864          0.35957420294449977          1.0000   
         H         H         1.0       0.17594859987922704           0.3839841120734507 0.5635319746318596 1.0000   
         H         H         1.0       0.2234715990061438  0.3927701539254923  0.52454111775827   1.0000   
         H         H         1.0       0.18555306158723137           0.48605095014714145          0.4923444042213576 1.0000   
         H         H         1.0       0.14247350522165708           0.47974451539338203          0.5342283379079663 1.0000   
         H         H         1.0       0.27504757739353425           0.46870310615954525          0.419122175309463  1.0000   
         H         H         1.0       0.30029373730909903           0.5210629430282947 0.409322335952352  1.0000   
         H         H         1.0       0.2662537101815746  0.5512649560002612  0.5140129060755005 1.0000   
         H         H         1.0       0.24273327465220446           0.5027980431150265 0.5234807465447806 1.0000   
         H         H         1.0       0.2638033654119739  0.43619606879942524           0.5514982701163871 1.0000   
         H         H         1.0       0.314560775766918   0.41295119111266065           0.5758596407609977 1.0000   
         H         H         1.0       0.34191224181491525           0.3962786112866441 0.4637781347117005 1.0000   
         H         H         1.0       0.29134444215487687           0.41559302719910995          0.44149062346837475          1.0000   
         C         C         1.0       0.09077315851510037           0.13701292086944047          0.13115848997019558          1.0000   
         C         C         1.0       0.11667708830425146           0.12745215321030728          0.1526689701330334 1.0000   
         C         C         1.0       0.12698701562134543           0.1479139256608304 0.18076295591997146          1.0000   
         C         C         1.0       0.11217556744097239           0.1767444568210656 0.1893090404251745 1.0000   
         C         C         1.0       0.08565287531902466           0.18588751135781528          0.1671753598092299 1.0000   
         C         C         1.0       0.07580065098285349           0.16676710496859806          0.1378586714259295 1.0000   
         H         H         1.0       0.13015933347275122           0.10584874167383385          0.1438726328762624 1.0000   
         H         H         1.0       0.14658731242890144           0.13979514212678784          0.19529863866866218          1.0000   
         H         H         1.0       0.07152895808311088           0.20607264042914525          0.17526874427283473          1.0000   
         H         H         1.0       0.0547695456642876  0.1756185534220486  0.12221660549490813          1.0000   
         C         C         1.0       0.5293571575461822  0.3751164692545121  0.24486810223284564          1.0000   
         C         C         1.0       0.5573990822505265  0.393632962603358   0.24248390568519554          1.0000   
         C         C         1.0       0.5538094211502104  0.42579549520616927           0.22967162101556451          1.0000   
         C         C         1.0       0.5242863038224073  0.4374960734269616  0.21699190968278517          1.0000   
         C         C         1.0       0.49653929313864825           0.4171691621784289 0.220017593356149  1.0000   
         C         C         1.0       0.4999874957806953  0.38631908817937455           0.2332622674777314 1.0000   
         C         C         1.0       0.1174633472507354  0.19901219944018686           0.22552936841563084          1.0000   
         C         C         1.0       0.12916173959386426           0.23423336486539176          0.21162479433685638          1.0000   
         C         C         1.0       0.13608429366429786           0.2557027420294843 0.2393760741753369 1.0000   
         C         C         1.0       0.14962018591874965           0.2859408575513    0.23159407700848134          1.0000   
         C         C         1.0       0.15463823263024296           0.29632991787414686          0.1965872756256108 1.0000   
         C         C         1.0       0.1482620446548903  0.2749597397625833  0.16819914628702168          1.0000   
         C         C         1.0       0.13540469206803069           0.24522859355450158          0.17627473407299307          1.0000   
         C         C         1.0       0.1407799078361824  0.15926283720054393           0.27815531293445056          1.0000   
         C         C         1.0       0.16434220745805994           0.1460485836150238 0.2980169098280805 1.0000   
         C         C         1.0       0.19659676134821566           0.15574696948675423          0.29569282115179446          1.0000   
         C         C         1.0       0.20255822391739126           0.18026353472055726          0.2692020831415269 1.0000   
         C         C         1.0       0.1777115043477359  0.1901441484254015  0.2463622959129543 1.0000   
         C         C         1.0       0.14574977912840678           0.18277900671929936          0.25177266159688766          1.0000   
         C         C         1.0       0.22505098484711314           0.1468858097287627 0.32705597981341566          1.0000   
         C         C         1.0       0.1742407135138945  0.21500753876113682           0.40197410690250773          1.0000   
         C         C         1.0       0.17180154764151914           0.18271922610412533          0.40581470782771695          1.0000   
         C         C         1.0       0.18866890954542917           0.16169289689537011          0.38454752693592315          1.0000   
         C         C         1.0       0.2112602961538219  0.17152215716012878           0.3585675159065103 1.0000   
         C         C         1.0       0.2134197027929158  0.20542710451576524           0.35537294002275455          1.0000   
         C         C         1.0       0.19720880498039298           0.22739548891372996          0.37761838236663453          1.0000   
         C         C         1.0       0.26210726499872095           0.15192979127143016          0.3158820452686482 1.0000   
         C         C         1.0       0.2701592870742614  0.14274892954067298           0.28176457578567327          1.0000   
         C         C         1.0       0.2988822119490899  0.15177898988396474           0.2677356514022984 1.0000   
         C         C         1.0       0.3189208030178834  0.17343929018818055           0.28697000933739314          1.0000   
         C         C         1.0       0.3139364795928355  0.17892738864014152           0.32437203171306594          1.0000   
         C         C         1.0       0.2851019093366841  0.1695328060466754  0.33693423148933677          1.0000   
         C         C         1.0       0.2415903071493786  0.10133190775389855           0.37170221445265794          1.0000   
         C         C         1.0       0.23908732000593527           0.06928842185203754          0.38773856891331016          1.0000   
         C         C         1.0       0.21925047087616814           0.047060399980058065         0.37010254197930925          1.0000   
         C         C         1.0       0.2096681417037501  0.05353699043731708           0.33493474840233695          1.0000   
         C         C         1.0       0.21154097242487468           0.0835316643716606 0.319539527441961  1.0000   
         C         C         1.0       0.22603120666541757           0.109064991833723  0.3398203835986983 1.0000   
         H         H         1.0       0.5309177727143534  0.35004688592866123           0.25224487867854023          1.0000   
         H         H         1.0       0.5749509135526314  0.4378927187324831  0.22085417613592442          1.0000   
         H         H         1.0       0.5245778759234125  0.4581123205718615  0.19962982560753986          1.0000   
         H         H         1.0       0.47687062594729057           0.37388345255830957          0.2304246738128928 1.0000   
         H         H         1.0       0.13034854195789672           0.250372468060855  0.26797750958476974          1.0000   
         H         H         1.0       0.1552254298129257  0.30291281435377476           0.2542779788074798 1.0000   
         H         H         1.0       0.152864278960388   0.28368179258057513           0.14105934733107517          1.0000   
         H         H         1.0       0.1293430802540297  0.23314812288242687           0.15200956498951568          1.0000   
         H         H         1.0       0.5624751939902555  0.3555084893955089  0.3037110249493137 1.0000   
         H         H         1.0       0.15842451935276358           0.12970250320778257          0.3197612147552108 1.0000   
         H         H         1.0       0.22646348232227828           0.19196783398029083          0.2648381699213339 1.0000   
         H         H         1.0       0.18669494816790236           0.20361327557534473          0.22323285268654752          1.0000   
         H         H         1.0       0.15581810980320382           0.17270763169878314          0.426404284681568  1.0000   
         H         H         1.0       0.18340900373691715           0.13487816066070188          0.38650989350315834          1.0000   
         H         H         1.0       0.22709700967556537           0.21548912616430616          0.3336676924179556 1.0000   
         H         H         1.0       0.20058740346817278           0.251858317767598  0.3758534272311571 1.0000   
         H         H         1.0       0.25312967971248135           0.12575891753692336          0.26708717127600334          1.0000   
         H         H         1.0       0.30364735898618384           0.1447699135753771 0.23989631021901262          1.0000   
         H         H         1.0       0.32819331352853903           0.195924017768557  0.339916152572303  1.0000   
         H         H         1.0       0.27827929877362473           0.1735210116563673 0.3632840608240466 1.0000   
         H         H         1.0       0.254982669312564   0.1198118461406747  0.38792048908988436          1.0000   
         H         H         1.0       0.24761267667837697           0.06363910804532869          0.4150806590019029 1.0000   
         H         H         1.0       0.19602301638424932           0.03445694428445889          0.3196477355692225 1.0000   
         H         H         1.0       0.20001526029932049           0.08833180392456264          0.2952920188160937 1.0000   
         C         C         1.0       0.40914647300002116           0.35277558179682217          0.8495985316159377 1.0000   
         C         C         1.0       0.4259226723013454  0.3780670109870057  0.8655055810066385 1.0000   
         C         C         1.0       0.43623062281264624           0.37838015395328   0.9011531064232834 1.0000   
         C         C         1.0       0.4336874122405005  0.34986974915285196           0.9208138304781115 1.0000   
         C         C         1.0       0.4170772586305623  0.3236775999907046  0.9056502134315957 1.0000   
         C         C         1.0       0.40323817459132116           0.32495565175143765          0.8699930008381688 1.0000   
         H         H         1.0       0.4330227356118077  0.39986031512875    0.8520319268813865 1.0000   
         H         H         1.0       0.45023631009822995           0.3985968732581899 0.9130333166600478 1.0000   
         H         H         1.0       0.4114957476283198  0.30338831325450916           0.9228550776450897 1.0000   
         H         H         1.0       0.3946288455786336  0.3024943903857192  0.8576410596039368 1.0000   
         C         C         1.0       0.48418445507767954           0.3793044654326779 0.01191676669444286          1.0000   
         C         C         1.0       0.4813591947767772  0.367805942888386   0.9752887268123697 1.0000   
         C         C         1.0       0.5042384414340778  0.37563700824936214           0.950665074898513  1.0000   
         C         C         1.0       0.5260329831164119  0.40006826857311567           0.9601265995811383 1.0000   
         C         C         1.0       0.5265552976785461  0.41412193642554906           0.9942087092994161 1.0000   
         C         C         1.0       0.5062442060829017  0.40233781307888244           0.0203159138850868 1.0000   
         C         C         1.0       0.4481607473263982  0.34871923196231064           0.9637038898766734 1.0000   
         C         C         1.0       0.4616270584255264  0.31244136884549356           0.9735290912178763 1.0000   
         C         C         1.0       0.46350348204131214           0.299709693762347  0.009685031856614179         1.0000   
         C         C         1.0       0.473397747229497   0.26861338839496934           0.01672844071314228          1.0000   
         C         C         1.0       0.4875377674492696  0.24899947244362783           0.9900002455618605 1.0000   
         C         C         1.0       0.49251487437751107           0.2643815950949252 0.9558353319688355 1.0000   
         C         C         1.0       0.4798311431485688  0.2946501548341306  0.9477543742117798 1.0000   
         C         C         1.0       0.4087054053616956  0.39476047805166453           0.9831593068101777 1.0000   
         C         C         1.0       0.3839856551474737  0.40703060034271815           0.0035720549791073974        1.0000   
         C         C         1.0       0.36900701369187927           0.3873725644069164 0.028121361103539133         1.0000   
         C         C         1.0       0.37553157976426665           0.35293246635833087          0.027013037962755337         1.0000   
         C         C         1.0       0.39701992464697755           0.34098368248119837          0.0031993769191052124        1.0000   
         C         C         1.0       0.41844486511765083           0.36196018870254126          0.9846621014963306 1.0000   
         C         C         1.0       0.34964652521210454           0.40759173804505344          0.05955923856897671          1.0000   
         C         C         1.0       0.43338354198075546           0.4217971369217122 0.1355281038688187 1.0000   
         C         C         1.0       0.42739205206311964           0.4440340578654839 0.1084400025581832 1.0000   
         C         C         1.0       0.39927699272704076           0.4393388928971775 0.08539382777903404          1.0000   
         C         C         1.0       0.37919522629206653           0.4121777150286963 0.08946275100202894          1.0000   
         C         C         1.0       0.3877428592020824  0.3891043117944985  0.11653387103940327          1.0000   
         C         C         1.0       0.41292839174529183           0.3948658250745914 0.1402627550348293 1.0000   
         C         C         1.0       0.31991602559127885           0.38732268882870957          0.07671077313890184          1.0000   
         C         C         1.0       0.303037282349681   0.3624946994234525  0.05708583597805683          1.0000   
         C         C         1.0       0.2790082856559833  0.34522648697146396           0.07224231804452863          1.0000   
         C         C         1.0       0.2682419202674503  0.35199252653783236           0.10599112951727818          1.0000   
         C         C         1.0       0.2841584434414142  0.37606437760486183           0.12756938611446794          1.0000   
         C         C         1.0       0.3105550585815519  0.3927766127788164  0.11346474170604992          1.0000   
         C         C         1.0       0.3216276198692126  0.46637275818378066           0.06757840331148257          1.0000   
         C         C         1.0       0.3013176012023266  0.49019513736027054           0.05536950845450649          1.0000   
         C         C         1.0       0.2827314111811721  0.48636759728028794           0.02431779943714263          1.0000   
         C         C         1.0       0.2880952449699819  0.4583716789487575  0.0020310218066468266        1.0000   
         C         C         1.0       0.31006821257995587           0.43584775935679654          0.01403920006590198          1.0000   
         C         C         1.0       0.32890040599099873           0.43843506163742185          0.046149901830682794         1.0000   
         H         H         1.0       0.46764798575043126           0.36799112511091964          0.032066332741025994         1.0000   
         H         H         1.0       0.5034837637339945  0.36539528956702244           0.9248389901334155 1.0000   
         H         H         1.0       0.5410254393697493  0.4097044535647502  0.9385708066157042 1.0000   
         H         H         1.0       0.5067441699663877  0.4084136328642624  0.05059791282567838          1.0000   
         H         H         1.0       0.45321499514497193           0.31144717477246675          0.032645848389645904         1.0000   
         H         H         1.0       0.46946448099838006           0.26025082735524396          0.045068209090721734         1.0000   
         H         H         1.0       0.5083205115870713  0.2521342796217695  0.9377914742514093 1.0000   
         H         H         1.0       0.4860987128093783  0.30352619184563756           0.9214833875063912 1.0000   
         H         H         1.0       0.4201293298330092  0.41195279920182404           0.966735886255214  1.0000   
         H         H         1.0       0.3807244506408986  0.43257930009677037           0.9990202158363258 1.0000   
         H         H         1.0       0.36621566060449484           0.3350948682822601 0.04774755224422367          1.0000   
         H         H         1.0       0.4025146598234157  0.314925057802055   0.002247869453079865         1.0000   
         H         H         1.0       0.4438372910978147  0.46367708964010046           0.10287761592579144          1.0000   
         H         H         1.0       0.39507191915054685           0.45307008551478645          0.061404612335516084         1.0000   
         H         H         1.0       0.37562613577204884           0.3658684007631848 0.11973221150910796          1.0000   
         H         H         1.0       0.42259053989046536           0.3766365921184681 0.1596347986882506 1.0000   
         H         H         1.0       0.3082948666757722  0.35706399580326614           0.029217988387504112         1.0000   
         H         H         1.0       0.2665420680930549  0.327287417729426   0.05714696495936278          1.0000   
         H         H         1.0       0.280805256343652   0.3799290602752853  0.15571386110915325          1.0000   
         H         H         1.0       0.32028122521331703           0.4116084557749346 0.13081805159202997          1.0000   
         H         H         1.0       0.33131505643489473           0.466755167502409  0.09527651246097846          1.0000   
         H         H         1.0       0.2960456035047655  0.5114187610440663  0.07475733280404717          1.0000   
         H         H         1.0       0.27264419632343906           0.45274247292762426          0.9778132955593484 1.0000   
         H         H         1.0       0.31387955644043847           0.41483404687570524          0.9960857670926897 1.0000   
         C         C         1.0       0.12414323262119306           0.15009062733212286          0.061194901493288656         1.0000   
         C         C         1.0       0.13362181541072413           0.18198951389456383          0.06700862650273942          1.0000   
         C         C         1.0       0.16554151645564621           0.1892347288902886 0.0706987476019949 1.0000   
         C         C         1.0       0.19050424491795473           0.16539813951990964          0.06947456675581387          1.0000   
         C         C         1.0       0.1801681000603176  0.13346884641213874           0.06262970665154866          1.0000   
         C         C         1.0       0.1477382199610327  0.12590085433441262           0.05604935215261331          1.0000   
         H         H         1.0       0.11482250923913984           0.19847094601966925          0.07312620821290472          1.0000   
         H         H         1.0       0.17050144586779067           0.2154860153865629 0.07057744671403077          1.0000   
         H         H         1.0       0.20080985010766159           0.11574962825189461          0.062017228624312803         1.0000   
         H         H         1.0       0.13962452988482088           0.10206711556315119          0.04402611290855085          1.0000   
         C         C         1.0       0.2484869172013808  0.13221839534093302           0.11127955638060238          1.0000   
         C         C         1.0       0.25417880309230806           0.1499844607768144 0.08013031570641904          1.0000   
         C         C         1.0       0.28349893431927287           0.14547772766391526          0.06148613478773868          1.0000   
         C         C         1.0       0.12235486454677426           0.6215443441200385 0.1529401576405871 1.0000   
         C         C         1.0       0.12516727866271432           0.6387677880094581 0.18627285161075569          1.0000   
         C         C         1.0       0.14256988413405122           0.66703981293299   0.18832743083706074          1.0000   
         C         C         1.0       0.22800487818745752           0.17519040648838038          0.06602111832346491          1.0000   
         C         C         1.0       0.23779312776583736           0.20891356481651477          0.08633733390835907          1.0000   
         C         C         1.0       0.26361055025930047           0.2295679724580883 0.07631147563969631          1.0000   
         C         C         1.0       0.2694682154119841  0.2579536311634323  0.09471205351497813          1.0000   
         C         C         1.0       0.25205125483670837           0.26708904881683304          0.1254535532161407 1.0000   
         C         C         1.0       0.22715575023359985           0.24593360003526255          0.13656994139833212          1.0000   
         C         C         1.0       0.22363348474785594           0.21576328767995293          0.11915728807571035          1.0000   
         C         C         1.0       0.2290634988760723  0.15337716702020296           0.9984754863075529 1.0000   
         C         C         1.0       0.21465862869633578           0.1540131785912289 0.9643869761482591 1.0000   
         C         C         1.0       0.20197975435876991           0.18350935478156213          0.9500995132984321 1.0000   
         C         C         1.0       0.20580297087368815           0.2108323011679661 0.9718918980212236 1.0000   
         C         C         1.0       0.21777877423545172           0.20911958847047463          0.005689336463313488         1.0000   
         C         C         1.0       0.2282843771280145  0.17946077980844127           0.022315947330393326         1.0000   
         C         C         1.0       0.17810859642965085           0.18286216191570087          0.9133699595670117 1.0000   
         C         C         1.0       0.24882633326502093           0.15392256161241344          0.8350103726541607 1.0000   
         C         C         1.0       0.22621032521337964           0.13251555084287497          0.8466963459867913 1.0000   
         C         C         1.0       0.2024464070933444  0.14172142481818853           0.8681455838226352 1.0000   
         C         C         1.0       0.20082554608900974           0.17309418479562788          0.8824440176535533 1.0000   
         C         C         1.0       0.22354659987002262           0.19607465793369894          0.8703491643969133 1.0000   
         C         C         1.0       0.24659586631261926           0.1862051820630775 0.8449461492182446 1.0000   
         C         C         1.0       0.157000337891248   0.2164619559106295  0.9056895581825493 1.0000   
         C         C         1.0       0.13580022665740843           0.22860228355275758          0.9316572189090258 1.0000   
         C         C         1.0       0.10751390375841319           0.244977591708815  0.9209557027094183 1.0000   
         C         C         1.0       0.10212257651291679           0.254550768870008  0.8843978161097861 1.0000   
         C         C         1.0       0.1254927122695988  0.24678814512614214           0.8595503626500434 1.0000   
         C         C         1.0       0.1523692057920115  0.22816232901534722           0.8713417370448607 1.0000   
         C         C         1.0       0.1282377697001662  0.14775362711485715           0.8877758903300427 1.0000   
         C         C         1.0       0.10477323797601445           0.12502878167998016          0.8930433279279786 1.0000   
         C         C         1.0       0.09447686251036402           0.11898462951824908          0.9269088593805397 1.0000   
         C         C         1.0       0.11044379321791496           0.13114300419387567          0.9579185076615397 1.0000   
         C         C         1.0       0.13622564340756538           0.1514799911316249 0.9525534433896066 1.0000   
         C         C         1.0       0.14790378100000434           0.15760578657531069          0.9182216395042774 1.0000   
         H         H         1.0       0.22509845408370924           0.13537268274781747          0.12743971961918985          1.0000   
         H         H         1.0       0.2905748607042319  0.16048000306942461           0.03862897062446091          1.0000   
         H         H         1.0       0.10770047897062994           0.5998346185636556 0.1485884187110842 1.0000   
         H         H         1.0       0.13977960999964284           0.6798594379405993 0.21362382544689346          1.0000   
         H         H         1.0       0.2774303232866044  0.22510721909367912           0.05197544158980527          1.0000   
         H         H         1.0       0.28755358656203794           0.2745897345963357 0.08400829995618486          1.0000   
         H         H         1.0       0.2143742323086477  0.25010494752452167           0.16138996685849108          1.0000   
         H         H         1.0       0.20709780964163163           0.19922670829472747          0.13201421793033283          1.0000   
         H         H         1.0       0.23675751186093622           0.13129920775470028          0.010544231864466846         1.0000   
         H         H         1.0       0.21285782657701874           0.1324058553412383 0.9464928699252393 1.0000   
         H         H         1.0       0.196313341062421   0.23531538865695972           0.9600577742479212 1.0000   
         H         H         1.0       0.21767281047160034           0.2325154116397625 0.01887209575037274          1.0000   
         H         H         1.0       0.22796932515194135           0.10686942196237094          0.838932827644691  1.0000   
         H         H         1.0       0.18906224013997863           0.12237408946076925          0.8786697064184175 1.0000   
         H         H         1.0       0.22331012646253046           0.22229030202993136          0.8806851572267529 1.0000   
         H         H         1.0       0.26584427104267994           0.20398835632424508          0.8388730460387569 1.0000   
         H         H         1.0       0.13544089289134695           0.22064095752789795          0.9595526916038526 1.0000   
         H         H         1.0       0.08739635181507488           0.24914211445839243          0.9395772707712894 1.0000   
         H         H         1.0       0.12248321919474474           0.2516920037057983 0.8298117930586196 1.0000   
         H         H         1.0       0.1664664624163648  0.21794109364823477           0.848525701063245  1.0000   
         H         H         1.0       0.13444913630781158           0.15623168949965022          0.8613180433875494 1.0000   
         H         H         1.0       0.08926036435104656           0.11787483727911963          0.8694147622884328 1.0000   
         H         H         1.0       0.10167238261351219           0.12681078967988552          0.9840613954853746 1.0000   
         H         H         1.0       0.14662706764901595           0.16479019754392954          0.9756310804730002 1.0000   
         C         C         1.0       0.42263267797476317           0.3017841281816905 0.7756157125378559 1.0000   
         C         C         1.0       0.44635984177621546           0.2809939939570666 0.7866992868451999 1.0000   
         C         C         1.0       0.44469945911758174           0.24893781603932844          0.7752457998165877 1.0000   
         C         C         1.0       0.4181823102091843  0.23601623783184708           0.7564577375286126 1.0000   
         C         C         1.0       0.3936174171037605  0.25762321290932744           0.7483683944233774 1.0000   
         C         C         1.0       0.39474099068059193           0.289328872711852  0.7582670430444316 1.0000   
         H         H         1.0       0.46815956355877636           0.29130324796099316          0.8020043946062576 1.0000   
         H         H         1.0       0.46463896631715723           0.23233165034051134          0.7825326073894858 1.0000   
         H         H         1.0       0.37270557373225915           0.24966544194778056          0.7330374170138075 1.0000   
         H         H         1.0       0.3750042061797433  0.3050482491370347  0.7490561101861954 1.0000   
         C         C         1.0       0.3675321112264319  0.19033067938069242           0.7883824917764457 1.0000   
         C         C         1.0       0.38137577530024913           0.18383427627134122          0.7542036700398936 1.0000   
         C         C         1.0       0.3650192863547919  0.1623055128657091  0.7309478959284774 1.0000   
         C         C         1.0       0.33658263511130315           0.147735295887301  0.7415468942834327 1.0000   
         C         C         1.0       0.32236630223097346           0.1577761979094164 0.7738395182264558 1.0000   
         C         C         1.0       0.3376165311660489  0.18015148783927243           0.7959461402637563 1.0000   
         C         C         1.0       0.41666220790049213           0.19857622418473878          0.7442728845513147 1.0000   
         C         C         1.0       0.440142317456045   0.17227685357528413           0.7647869131558332 1.0000   
         C         C         1.0       0.4530472657207895  0.143875767554307   0.7464086144744605 1.0000   
         C         C         1.0       0.4698966792259494  0.1182162068879713  0.7632454980161206 1.0000   
         C         C         1.0       0.47825551863820776           0.12153919165707466          0.7996801363924804 1.0000   
         C         C         1.0       0.469507002628101   0.1496240353970555  0.8189955863150843 1.0000   
         C         C         1.0       0.44751292303216755           0.17282187262571413          0.8026147969259768 1.0000   
         C         C         1.0       0.4045693998127945  0.21122328097598514           0.6744257732661149 1.0000   
         C         C         1.0       0.4146687306878545  0.226447169180436   0.6429823867586102 1.0000   
         C         C         1.0       0.44633013436333036           0.23663690858114383          0.6381650201802961 1.0000   
         C         C         1.0       0.46990340085011817           0.2240635780123475 0.6635480226935513 1.0000   
         C         C         1.0       0.4599169402205982  0.20890929204714467           0.6946217276684721 1.0000   
         C         C         1.0       0.42664389323984014           0.20298606526272422          0.70089338903423   1.0000   
         C         C         1.0       0.4540467734964116  0.26515782517482106           0.6071326554077552 1.0000   
         C         C         1.0       0.5086560334787146  0.21350859650532453           0.5222952916753806 1.0000   
         C         C         1.0       0.47488807798321725           0.21168194732791776          0.52050388330422   1.0000   
         C         C         1.0       0.4557999439456918  0.224735748548303   0.5493508741341036 1.0000   
         C         C         1.0       0.4711915996937764  0.24171390420067243           0.5780657029490733 1.0000   
         C         C         1.0       0.5045109983417599  0.24451509703035149           0.5773910582244937 1.0000   
         C         C         1.0       0.5233669361965384  0.22913709367221735           0.551706649553668  1.0000   
         C         C         1.0       0.473574746906372   0.29475471850164725           0.6289224387479024 1.0000   
         C         C         1.0       0.46341242887087497           0.30231323275295674          0.6642412124261944 1.0000   
         C         C         1.0       0.47493523869707743           0.3291034704588605 0.6824533477483513 1.0000   
         C         C         1.0       0.49673127351842367           0.34963366352681086          0.6640672015443431 1.0000   
         C         C         1.0       0.5058851487837757  0.34313746904057846           0.6285411945282843 1.0000   
         C         C         1.0       0.49322454475939964           0.31544999857924755          0.6120143595506912 1.0000   
         C         C         1.0       0.42544561352024085           0.2965336619271886 0.5486128513429527 1.0000   
         C         C         1.0       0.39978099531106215           0.31625338057747976          0.5361196108661793 1.0000   
         C         C         1.0       0.37382186924819977           0.3253322751029956 0.559181519195987  1.0000   
         C         C         1.0       0.37420339100596445           0.31509807838865517          0.594140687942776  1.0000   
         C         C         1.0       0.39867866274245894           0.29545897604413185          0.6080940397618168 1.0000   
         C         C         1.0       0.42381762136427914           0.2849486379107404 0.5865372128148753 1.0000   
         H         H         1.0       0.3762301695724041  0.20959078427930944           0.8073943532449096 1.0000   
         H         H         1.0       0.3778559007998557  0.1519515871899908  0.7072742336115698 1.0000   
         H         H         1.0       0.3236096054577481  0.13316378766694778           0.7206190794751778 1.0000   
         H         H         1.0       0.3243360769958485  0.18995184026479237           0.8206156866497909 1.0000   
         H         H         1.0       0.44383301211465975           0.14139183777019004          0.7169851313428253 1.0000   
         H         H         1.0       0.47460563258888266           0.09589812770179695          0.7474311492446604 1.0000   
         H         H         1.0       0.4768433215901461  0.14999491057815062           0.8477948378879377 1.0000   
         H         H         1.0       0.4374271366766884  0.19104627734248586           0.8207641424381515 1.0000   
         H         H         1.0       0.37994428971137634           0.20882298022615348          0.6770094492732375 1.0000   
         H         H         1.0       0.3958616910021179  0.2334205893697539  0.6244950447911506 1.0000   
         H         H         1.0       0.49303571481812897           0.234673922983157  0.6601418110985345 1.0000   
         H         H         1.0       0.476733970383554   0.20472912143982946           0.7164915665427559 1.0000   
         H         H         1.0       0.46422658209591255           0.19992163893853937          0.49640033207822876          1.0000   
         H         H         1.0       0.42900088573616035           0.2232583635034605 0.5472200780951336 1.0000   
         H         H         1.0       0.516486635356014   0.2511260324571065  0.6029062460039875 1.0000   
         H         H         1.0       0.5475885671862317  0.23352554031420586           0.5537538223491772 1.0000   
         H         H         1.0       0.446952665479967   0.28659047259227904           0.6800486634115722 1.0000   
         H         H         1.0       0.46297964960874727           0.33392866184093484          0.7065587188464288 1.0000   
         H         H         1.0       0.521665516129046   0.3587658295879813  0.6136533598730115 1.0000   
         H         H         1.0       0.4975509780779487  0.3121459134255423  0.584396446468546  1.0000   
         H         H         1.0       0.44509187010589646           0.2923546920868942 0.5299558006308883 1.0000   
         H         H         1.0       0.40010961367137954           0.3265869762813528 0.5069598887977775 1.0000   
         H         H         1.0       0.354620581007388   0.32150079661609443           0.6138741471781021 1.0000   
         H         H         1.0       0.3934830177623134  0.2879082301676551  0.6365957714942325 1.0000   
         C         C         1.0       0.5058702665236834  0.6420202497644504  0.5877113635770798 1.0000   
         C         C         1.0       0.5015919443538518  0.6141139948308152  0.5666890837384418 1.0000   
         C         C         1.0       0.4829198819535     0.6165200111162532  0.5358287803960503 1.0000   
         C         C         1.0       0.46857390139554284           0.6460676932454343 0.5239893286094253 1.0000   
         C         C         1.0       0.47899890111608534           0.6740922042046406 0.5423205416001677 1.0000   
         C         C         1.0       0.4983741747755759  0.6722782775801093  0.5714468001924845 1.0000   
         H         H         1.0       0.5121058954669667  0.5904498492327587  0.5746527643271535 1.0000   
         H         H         1.0       0.4795539264777575  0.5935232668932983  0.519109399911893  1.0000   
         H         H         1.0       0.4744151490892556  0.6988729070772761  0.5318592585079978 1.0000   
         H         H         1.0       0.506399952173128   0.6928359577047375  0.587488888486986  1.0000   
         C         C         1.0       0.4017175440760068  0.6807761498581856  0.5310478198440806 1.0000   
         C         C         1.0       0.4136620615389286  0.6738952785412036  0.49548944237062326          1.0000   
         C         C         1.0       0.3932528857527213  0.68092910961559    0.46602953219177234          1.0000   
         C         C         1.0       0.5428024006293776  0.11923935752201231           0.4609309811587628 1.0000   
         C         C         1.0       0.5338848329700225  0.13364236827159273           0.49351651240273164          1.0000   
         C         C         1.0       0.5109001034657205  0.12084560656990534           0.5141542679074929 1.0000   
         C         C         1.0       0.4438149805231019  0.6480848899434436  0.49145055348359357          1.0000   
         C         C         1.0       0.42271882270373035           0.6160158599679632 0.48868490967931966          1.0000   
         C         C         1.0       0.41426977193559555           0.6018300760840762 0.453598872060378  1.0000   
         C         C         1.0       0.3881999020548974  0.5798476451641708  0.45107443218323684          1.0000   
         C         C         1.0       0.37118358059255263           0.5722831769396665 0.47980587473480957          1.0000   
         C         C         1.0       0.38270216803685064           0.5792791163455115 0.5145958663751932 1.0000   
         C         C         1.0       0.4080053903077072  0.6012783222460173  0.5179256456618364 1.0000   
         C         C         1.0       0.46585503426265745           0.6886234803118    0.4397292506408975 1.0000   
         C         C         1.0       0.48285724574177163           0.6938549832839495 0.40843118046347177          1.0000   
         C         C         1.0       0.5039285419343837  0.6703338765480176  0.3953313091576848 1.0000   
         C         C         1.0       0.5057534046534529  0.6398597429843135  0.41436573056286913          1.0000   
         C         C         1.0       0.4876867659958118  0.634956514694114   0.4445085670523799 1.0000   
         C         C         1.0       0.46580441703138353           0.6585586016118914 0.45712436011292995          1.0000   
         C         C         1.0       0.5249269537307197  0.6730380777197627  0.3576225008444553 1.0000   
         C         C         1.0       0.4540995754363587  0.6232675591078713  0.2877311422959485 1.0000   
         C         C         1.0       0.4535194733112499  0.6566023408112671  0.2907853254133322 1.0000   
         C         C         1.0       0.4784812308213275  0.6713121741552481  0.3094843004198129 1.0000   
         C         C         1.0       0.5017185792517569  0.654476490256237   0.3295308117646671 1.0000   
         C         C         1.0       0.5028230572334542  0.6209085890614819  0.32461599220296   1.0000   
         C         C         1.0       0.4795137957980434  0.6058370470696511  0.30375380314503403          1.0000   
         C         C         1.0       0.561473448607069   0.6550226076357207  0.36600516052453397          1.0000   
         C         C         1.0       0.5809762842497668  0.6549836974351099  0.3986249524108305 1.0000   
         C         C         1.0       0.6103220141890984  0.6385567436366548  0.401015051143878  1.0000   
         C         C         1.0       0.6234943078877067  0.6237875097999821  0.37039112731144513          1.0000   
         C         C         1.0       0.6071166398793996  0.6240492629184147  0.33818465512264245          1.0000   
         C         C         1.0       0.5761649469720881  0.638553551331496   0.3355087780848496 1.0000   
         C         C         1.0       0.5454577338465693  0.717206140182215   0.3141136410419346 1.0000   
         C         C         1.0       0.5592880393474287  0.7456332783759919  0.30603496971007   1.0000   
         C         C         1.0       0.5661867591040085  0.7680996547660154  0.3333689972541332 1.0000   
         C         C         1.0       0.5595819480688373  0.7608383403842599  0.3694099360833557 1.0000   
         C         C         1.0       0.5434532461171473  0.7319280200222695  0.3777844431613697 1.0000   
         C         C         1.0       0.5369997700342511  0.7092091956277207  0.34889234798120705          1.0000   
         H         H         1.0       0.41171427759597357           0.6712483037232795 0.5559178204112941 1.0000   
         H         H         1.0       0.3978821993355117  0.6699348241630131  0.4401558894025921 1.0000   
         H         H         1.0       0.5616203229015534  0.1297382999493273  0.44154278774388545          1.0000   
         H         H         1.0       0.5040797085287483  0.13363361991399034           0.5379311841187265 1.0000   
         H         H         1.0       0.42622249323036276           0.610143194208086  0.42822342721326445          1.0000   
         H         H         1.0       0.383445202590765   0.5666044074443477  0.4261464372172626 1.0000   
         H         H         1.0       0.37178564581153867           0.574243799608828  0.5418220736906619 1.0000   
         H         H         1.0       0.4146204253193137  0.609958533075258   0.5457120705724963 1.0000   
         H         H         1.0       0.44921733096848643           0.7090330602516575 0.44963926648929053          1.0000   
         H         H         1.0       0.4784859909244996  0.7149709419599466  0.3898291569293508 1.0000   
         H         H         1.0       0.5206578731492599  0.6208236838145968  0.40456035268598634          1.0000   
         H         H         1.0       0.4867753311679596  0.6091921566937344  0.4551488610801777 1.0000   
         H         H         1.0       0.4364287017780486  0.6720417687309216  0.27423010356734573          1.0000   
         H         H         1.0       0.4792428492008749  0.6983938287781514  0.3095538624487605 1.0000   
         H         H         1.0       0.5215094416104243  0.6083475680914981  0.336342963131775  1.0000   
         H         H         1.0       0.48041446860605064           0.5814395102577798 0.29849440992836795          1.0000   
         H         H         1.0       0.572904409539514   0.6702695904393514  0.4211001369996977 1.0000   
         H         H         1.0       0.6259577566168318  0.6404299985748144  0.42583119477092535          1.0000   
         H         H         1.0       0.6198030737581551  0.6135818928012786  0.3142183019524097 1.0000   
         H         H         1.0       0.5616979447519298  0.6374758034930673  0.3098446200302284 1.0000   
         H         H         1.0       0.5446238400796157  0.6987668084321363  0.2910396658647006 1.0000   
         H         H         1.0       0.5661489910608685  0.7484844529318929  0.2777706063087497 1.0000   
         H         H         1.0       0.5652253853316849  0.7791723506929494  0.38816995599000986          1.0000   
         H         H         1.0       0.5335886862915931  0.729087347066113   0.40681081201472263          1.0000   
         C         C         1.0       0.33376304575633803           0.39329773826943565          0.25919488582667777          1.0000   
         C         C         1.0       0.32710475755184215           0.41053214777230906          0.2886244216808553 1.0000   
         C         C         1.0       0.3268651686224787  0.4431191127653593  0.2877235619556358 1.0000   
         C         C         1.0       0.3370673265654553  0.4602669348775665  0.25711471327928   1.0000   
         C         C         1.0       0.34440778131734245           0.44192587842116904          0.22749374412364592          1.0000   
         C         C         1.0       0.3461986338107687  0.4077556871553012  0.22881536243942702          1.0000   
         H         H         1.0       0.31961610454523925           0.4007474358589505 0.31353443798159397          1.0000   
         H         H         1.0       0.31586294715214813           0.4554844533017618 0.3113899433574048 1.0000   
         H         H         1.0       0.3539388453768997  0.45357064203307124           0.20294256024012766          1.0000   
         H         H         1.0       0.3524372376743903  0.3914490662455014  0.2052303999661676 1.0000   
         C         C         1.0       0.3930580927852509  0.5072512707666386  0.23459924596984394          1.0000   
         C         C         1.0       0.36042761463867035           0.5165828696990954 0.23034941111378096          1.0000   
         C         C         1.0       0.35155405078348084           0.5472888854240678 0.21798375098302866          1.0000   
         C         C         1.0       0.37710542422062054           0.5699231395585508 0.21406614734110593          1.0000   
         C         C         1.0       0.40916837507928416           0.5616896583464399 0.2234541344402845 1.0000   
         C         C         1.0       0.416069564681454   0.5294205093245428  0.23181525181202048          1.0000   
         C         C         1.0       0.33259604159698675           0.4982679952917441 0.25332185476911506          1.0000   
         C         C         1.0       0.33381439181423256           0.5197006849687986 0.290300133707211  1.0000   
         C         C         1.0       0.3154440086782197  0.5478262214005498  0.2953217354451384 1.0000   
         C         C         1.0       0.3237217436804721  0.5705210212646638  0.32213615860680545          1.0000   
         C         C         1.0       0.3520402632449923  0.5653242567135567  0.3428019318167613 1.0000   
         C         C         1.0       0.36901234144571177           0.5352081504149389 0.3405869239537697 1.0000   
         C         C         1.0       0.3588345884562328  0.5115137638178645  0.3164854204637358 1.0000   
         C         C         1.0       0.29326751693784436           0.4986551697293818 0.1959985808503889 1.0000   
         C         C         1.0       0.2617617564285701  0.4995996688307186  0.17922681931690582          1.0000   
         C         C         1.0       0.2356755923672863  0.4934180007911656  0.1997429475076183 1.0000   
         C         C         1.0       0.24006822357405488           0.49538140876528763          0.23830507022969982          1.0000   
         C         C         1.0       0.2709597313851756  0.4956670983878381  0.25498502354211694          1.0000   
         C         C         1.0       0.2978806658360512  0.4980020524534822  0.23382925578563687          1.0000   
         C         C         1.0       0.19840393553138733           0.48982812644541046          0.18094997005471167          1.0000   
         C         C         1.0       0.14884244037804104           0.5735243438289738 0.22802407349785062          1.0000   
         C         C         1.0       0.17637172711995586           0.5765416102081604 0.2042435535443674 1.0000   
         C         C         1.0       0.19099685339710695           0.5502958858200964 0.19127059510480868          1.0000   
         C         C         1.0       0.17964089702014088           0.5189390285050791 0.19756065783611895          1.0000   
         C         C         1.0       0.15331723280227202           0.5158408946986827 0.21956002819015322          1.0000   
         C         C         1.0       0.13776772290338002           0.5426091951317443 0.23543631015564942          1.0000   
         C         C         1.0       0.18294162400315897           0.45387783730176884          0.18571562719315066          1.0000   
         C         C         1.0       0.2004399210946847  0.4305356586938778  0.20402444349164126          1.0000   
         C         C         1.0       0.18821437623216836           0.3990398484563463 0.20445695449669052          1.0000   
         C         C         1.0       0.15906561215404622           0.3909408050413094 0.18795101124549787          1.0000   
         C         C         1.0       0.14262697309745195           0.41422533591118216          0.1681415805399965 1.0000   
         C         C         1.0       0.15194070098459939           0.44656071733363456          0.16970400205454003          1.0000   
         C         C         1.0       0.18725057636119308           0.5154741149174612 0.11393075149831264          1.0000   
         C         C         1.0       0.1916075831652684  0.5158696516233445  0.07674812854892331          1.0000   
         C         C         1.0       0.21013921616997705           0.4907764149783632 0.05917053815053629          1.0000   
         C         C         1.0       0.2224192021850574  0.4661810073234368  0.08069582034021017          1.0000   
         C         C         1.0       0.21697163443749254           0.4647702436595432 0.11693911509785052          1.0000   
         C         C         1.0       0.20064998332539624           0.4901989745309795 0.13596955400565008          1.0000   
         H         H         1.0       0.401772934793844   0.48373844061852206           0.244084132526106  1.0000   
         H         H         1.0       0.32689634959341163           0.555679284669609  0.21613945530947018          1.0000   
         H         H         1.0       0.3729358667679887  0.5959841091350891  0.20520649039271435          1.0000   
         H         H         1.0       0.4396641973369882  0.5190454554264732  0.2373757569735127 1.0000   
         H         H         1.0       0.2966529859707338  0.5563713209317076  0.27565989114860334          1.0000   
         H         H         1.0       0.30922577040064025           0.5928548550547191 0.32412221078169745          1.0000   
         H         H         1.0       0.38963442996399816           0.5322176420913598 0.35775301164268675          1.0000   
         H         H         1.0       0.3720515403518256  0.48858865630141474           0.31562014385261217          1.0000   
         H         H         1.0       0.314576252557329   0.49813382148063107           0.1801072761138469 1.0000   
         H         H         1.0       0.26236104672185    0.5006949197734217  0.14942493606965893          1.0000   
         H         H         1.0       0.21794659885619375           0.49275227005815364          0.2564874261077622 1.0000   
         H         H         1.0       0.2714957375634783  0.4958836599215237  0.28514218272288505          1.0000   
         H         H         1.0       0.1858260844969697  0.6009484096225511  0.19880215919156036          1.0000   
         H         H         1.0       0.21260666406677062           0.5531754384618915 0.17727323230279204          1.0000   
         H         H         1.0       0.14215842595067452           0.49273749707430664          0.22929762669010256          1.0000   
         H         H         1.0       0.11772082978952299           0.5366105493365079 0.25426676035082846          1.0000   
         H         H         1.0       0.22385340452095492           0.4336392993218713 0.21724769134267896          1.0000   
         H         H         1.0       0.2032120597200264  0.3815849980792373  0.21596890707330543          1.0000   
         H         H         1.0       0.1191476609683015  0.40810337599159846           0.15503147557082395          1.0000   
         H         H         1.0       0.1367799101887173  0.4643321656402585  0.15557507980579297          1.0000   
         H         H         1.0       0.17201209374754797           0.5364618322116865 0.12254265150433995          1.0000   
         H         H         1.0       0.18799334574856014           0.5384172445878066 0.06467814894272239          1.0000   
         H         H         1.0       0.23976304674790205           0.4485364539962912 0.06993343529641005          1.0000   
         H         H         1.0       0.23011419276483602           0.4462149165188428 0.13256354526579672          1.0000   
         C         C         1.0       0.4353433780723733  0.5862333700813463  0.23319617053654557          1.0000   
         C         C         1.0       0.4267110771496055  0.6029891122194083  0.2693864752809147 1.0000   
         H         H         1.0       0.4606710054843935  0.5762991885324501  0.2371600864340398 1.0000   
         H         H         1.0       0.4409530497160142  0.6058951240848669  0.21259872523686804          1.0000   
         H         H         1.0       0.4234432230533699  0.5845881942991563  0.29045331156099147          1.0000   
         H         H         1.0       0.4030794662676391  0.6161341302628499  0.2670540832324473 1.0000   
         C         C         1.0       0.5276295840700289  0.1972185190718961  0.4928694227118539 1.0000   
         C         C         1.0       0.5475419798883644  0.1675260333941529  0.5072215818740101 1.0000   
         H         H         1.0       0.5111021965890177  0.1916153803999715  0.47197577074928215          1.0000   
         H         H         1.0       0.5443838051716986  0.21466200392431034           0.47850615013665104          1.0000   
         H         H         1.0       0.5562913310020375  0.16533721393677522           0.5352804179045603 1.0000   
         H         H         1.0       0.5715583918982021  0.169310431033334   0.49213030053246976          1.0000   
         C         C         1.0       0.10791872562173777           0.623769637458966  0.2213212403951927 1.0000   
         C         C         1.0       0.13159385478007443           0.6032200461529831 0.24610518684343813          1.0000   
         H         H         1.0       0.09779795491679777           0.6448267154638134 0.23620141775735726          1.0000   
         H         H         1.0       0.0867332665619367  0.6094657841013614  0.21050277962077266          1.0000   
         H         H         1.0       0.11337171168350443           0.5948193711389573 0.2654309223394731 1.0000   
         H         H         1.0       0.14928469495099345           0.618709325027303  0.26281767627862024          1.0000   
         C         C         1.0       0.286407252509112   0.1525628645526819  0.7801934584213556 1.0000   
         C         C         1.0       0.2806179051238181  0.14006296944153063           0.8200048936366433 1.0000   
         H         H         1.0       0.27078630128022774           0.17499430167528157          0.7751807553365602 1.0000   
         H         H         1.0       0.2764082456268928  0.13227421028093433           0.7606176708533695 1.0000   
         H         H         1.0       0.30127868600987845           0.14610837381584948          0.8393046277788697 1.0000   
         H         H         1.0       0.28675926967806975           0.11254186934164245          0.822189924525181  1.0000   
         C         C         1.0       0.2541798573780711  0.5087967665968781  0.01476859127065122          1.0000   
         C         C         1.0       0.21995548863470019           0.49543135428007806          0.020146959062983916         1.0000   
         H         H         1.0       0.2541289518066826  0.516938014128894   0.9863211867983228 1.0000   
         H         H         1.0       0.2557631005562878  0.5316845162946586  0.03265195388234576          1.0000   
         H         H         1.0       0.20070374156276052           0.5127927053553466 0.0059204228694305075        1.0000   
         H         H         1.0       0.21910641336605133           0.4728638714468318 0.005422418907478521         1.0000   
         C         C         1.0       0.426588199777023   0.3383426737704812  0.782400119777123  1.0000   
         C         C         1.0       0.40081318578381603           0.35136416281693517          0.8086664756150223 1.0000   
         H         H         1.0       0.4524381790692685  0.34519007872910795           0.7863447248706529 1.0000   
         H         H         1.0       0.4214061128884523  0.35105075533804486           0.7560436169908632 1.0000   
         H         H         1.0       0.3767588343722614  0.34084450552480433           0.8023966614112009 1.0000   
         H         H         1.0       0.3947617580424661  0.37764188235974006           0.8007874975880027 1.0000   
         C         C         1.0       0.25733239364383903           0.30210157430283574          0.14538652789977324          1.0000   
         C         C         1.0       0.2432759891503972  0.331808731179734   0.12624825106040216          1.0000   
         H         H         1.0       0.24827229733669087           0.301034175873634  0.17462735674578256          1.0000   
         H         H         1.0       0.2849699525008538  0.3036179353525644  0.14903686995599316          1.0000   
         H         H         1.0       0.22964142439810728           0.34748961634403036          0.14470128371092272          1.0000   
         H         H         1.0       0.22550084970199416           0.32568844408976244          0.1050330144640928 1.0000   
         C         C         1.0       0.5061258013495759  0.21732468081367198           0.9985682271125145 1.0000   
         C         C         1.0       0.49630853422386445           0.1867620542659916 0.9741132285418717 1.0000   
         H         H         1.0       0.5321576076695748  0.2206935633862254  0.9995212739860345 1.0000   
         H         H         1.0       0.5005414127779292  0.20957273048737782           0.025461061321517375         1.0000   
         H         H         1.0       0.48955889355740884           0.1963566217060522 0.9472708902177185 1.0000   
         H         H         1.0       0.4755331372812752  0.1737312069166998  0.9828708403524783 1.0000   
         C         C         1.0       0.2104799687723699  0.014302071674614282         0.3877811307571329 1.0000   
         C         C         1.0       0.6048069816866766  0.13329582791446984           0.3302336857533721 1.0000   
         H         H         1.0       0.6065637440128532  0.8188405038341259  0.3713162142119905 1.0000   
         H         H         1.0       0.2443777063831439  0.5393631959356981  0.3125676316276454 1.0000   
         H         H         1.0       0.6275916894722892  0.14162059615850228           0.3434228005462037 1.0000   
         H         H         1.0       0.6082791490813456  0.14446959800330958           0.3027261457746519 1.0000   
         C         C         1.0       0.46575795395175923           0.42800559271037475          0.19940443480699732          1.0000   
         C         C         1.0       0.46693956838117584           0.42002026420594696          0.15744140356237976          1.0000   
         H         H         1.0       0.4596172520844344  0.45469703200377787           0.2032994214052617 1.0000   
         H         H         1.0       0.4442233271574862  0.41571773100777665           0.21163693673626954          1.0000   
         H         H         1.0       0.4761655005679651  0.3961514812080597  0.15014874577253723          1.0000   
         H         H         1.0       0.4834949523822179  0.4373596975154427  0.14411446940205042          1.0000   
         C         C         1.0       0.16783485430272468           0.32931067934672714          0.18776703029024255          1.0000   
         C         C         1.0       0.1451051294146384  0.35754340494726433           0.19474354102591468          1.0000   
         H         H         1.0       0.19081665799560385           0.3311804825831671 0.20299535368224805          1.0000   
         H         H         1.0       0.17354165703390595           0.33013809286226786          0.15804590565687948          1.0000   
         H         H         1.0       0.12449703388317997           0.35438939897177835          0.17558437875256952          1.0000   
         H         H         1.0       0.13504622621659731           0.3542212531624701 0.22263240268898035          1.0000   
         C         C         1.0       0.36952814057602534           0.5936794127838668 0.36483450013291185          1.0000   
         C         C         1.0       0.34559165898831556           0.19061784744085852          0.26683629237732476          1.0000   
         H         H         1.0       0.3564899197136293  0.5985170967432749  0.391517615596598  1.0000   
         H         H         1.0       0.39239766323085534           0.19099375532803592          0.24495455162905472          1.0000   
         H         H         1.0       0.3407536402207387  0.1914933773146979  0.2375976986962821 1.0000   
         H         H         1.0       0.34519684199984435           0.21635665886822633          0.2736164483531617 1.0000   
         C         C         1.0       0.08753712918770051           0.1378700593729861 0.06081121491731856          1.0000   
         C         C         1.0       0.07829174906631176           0.11932074738971835          0.09650322467397854          1.0000   
         H         H         1.0       0.5411493912625007  0.2840688124406542  0.05502720896927782          1.0000   
         H         H         1.0       0.523422000892428   0.28034223833001004           0.0973012482222355 1.0000   
         H         H         1.0       0.530068486424655   0.3347614643623279  0.09305027234203189          1.0000   
         H         H         1.0       0.05179248252563884           0.11502835612889983          0.0957511024459139 1.0000   
         C         C         1.0       0.34797206623849136           0.34709512104856066          0.5437193908293864 1.0000   
         C         C         1.0       0.3614613394282053  0.38049467164333584           0.5356482699808058 1.0000   
         H         H         1.0       0.3378878270176503  0.3362447971168654  0.5184641711431832 1.0000   
         H         H         1.0       0.32712756214464445           0.3502960963327501 0.5622844408572051 1.0000   
         H         H         1.0       0.3807652217445028  0.3823644957607566  0.5147492102803427 1.0000   
         H         H         1.0       0.36793837444604244           0.3929375874761882 0.5627766108046692 1.0000   
         C         C         1.0       0.12535012021051833           0.2520741964827639 0.3952555384641325 1.0000   
         C         C         1.0       0.15104196162202438           0.23625998786049415          0.42247829401245224          1.0000   
         H         H         1.0       0.10276894122743307           0.2544167662926201 0.4077520804859578 1.0000   
         H         H         1.0       0.11868373610148603           0.23478857461033614          0.37363679054261256          1.0000   
         H         H         1.0       0.13941473017910275           0.22161603747281353          0.4447633235694871 1.0000   
         H         H         1.0       0.1650690657138882  0.2542204500624095  0.4393887800946049 1.0000   
         C         C         1.0       0.64602132417541    0.5680629500281611  0.38108256616164743          1.0000   
         C         C         1.0       0.6559223696986547  0.6041788210857686  0.3702731205367724 1.0000   
         H         H         1.0       0.07183269929593149           0.4383860482797846 0.24215368452712   1.0000   
         H         H         1.0       0.6347644287695985  0.5507741747876026  0.35918428571133737          1.0000   
         H         H         1.0       0.6684681436842292  0.605382419837661   0.3438620733278996 1.0000   
         H         H         1.0       0.6741735220007634  0.6168190882300011  0.3889413834669924 1.0000   
         C         C         1.0       0.3104146985766632  0.5674010789530054  0.458743988542448  1.0000   
         C         C         1.0       0.3418274268351353  0.5486453507654951  0.4746626572116966 1.0000   
         H         H         1.0       0.311434721110676   0.5798333759114247  0.4315255677824937 1.0000   
         H         H         1.0       0.30550102780510946           0.5890343664478623 0.4778837436087543 1.0000   
         H         H         1.0       0.3494598427955349  0.5295486211304437  0.45332124390649675          1.0000   
         H         H         1.0       0.33679143160832065           0.5348787461083989 0.5003958720818231 1.0000   
         C         C         1.0       0.32777531588693076           0.3557500923722928 0.26086997852658117          1.0000   
         C         C         1.0       0.29289010817118666           0.3441470432448129 0.25141149358384285          1.0000   
         H         H         1.0       0.343026494891431   0.3450440961129751  0.23773316971804384          1.0000   
         H         H         1.0       0.3372698396335049  0.34653804458480225           0.2888113271220507 1.0000   
         H         H         1.0       0.29512771766387264           0.3177434217301124 0.2478851764968866 1.0000   
         H         H         1.0       0.28341759658198007           0.34931242304866383          0.22403076494237703          1.0000   
         C         C         1.0       0.6320640181276721  0.6671731017231     0.9214763743713745 1.0000   
         C         C         1.0       0.6642313931102805  0.6502474019448895  0.9094838256949355 1.0000   
         H         H         1.0       0.0619199492475424  0.6117376054309621  0.8453242133423511 1.0000   
         H         H         1.0       0.04074795444120393           0.6475344645492982 0.8291145556786875 1.0000   
         H         H         1.0       0.6687531742502039  0.6271963632466504  0.9271407343457911 1.0000   
         H         H         1.0       0.6627185610266563  0.6412447105582258  0.8822867402253916 1.0000   
         C         C         1.0       0.4999879271157083  0.6338095464152429  0.657419011466588  1.0000   
         C         C         1.0       0.523196803496707   0.6392851569237346  0.6245045432235262 1.0000   
         H         H         1.0       0.4738488364546592  0.6313199700052157  0.6501735969577376 1.0000   
         H         H         1.0       0.5021626629675386  0.6557829787484301  0.6738987889657972 1.0000   
         H         H         1.0       0.5430266812530343  0.6222352665581609  0.6224286689585011 1.0000   
         H         H         1.0       0.5344166805521683  0.6642476571920619  0.6291305138174155 1.0000   
         C         C         1.0       0.48677939585462926           0.09255370014904307          0.8248776633686233 1.0000   
         C         C         1.0       0.41009886571936327           0.6618126017630129 0.9122843915233565 1.0000   
         H         H         1.0       0.4859209553675522  0.09846431904778497           0.8552036422420111 1.0000   
         H         H         1.0       0.4696594224490903  0.07372849743197873           0.816865825109634  1.0000   
         H         H         1.0       0.40310521865055715           0.6650030193949569 0.9406679640126049 1.0000   
         H         H         1.0       0.4166719300942284  0.6854117587607378  0.9050008555501625 1.0000   
         C         C         1.0       0.4925748050032909  0.38957455374062044           0.721254729418506  1.0000   
         C         C         1.0       0.5104984324270018  0.3790483678358114  0.6850753356566289 1.0000   
         H         H         1.0       0.4975403366908425  0.3707705846797942  0.7427749751370557 1.0000   
         H         H         1.0       0.4658617715114575  0.3872004284348205  0.7155837375062778 1.0000   
         H         H         1.0       0.5362244482922054  0.37561220664033046           0.6918995715889842 1.0000   
         H         H         1.0       0.5096149716981784  0.39941470606479534           0.6654646840930573 1.0000   
         C         C         1.0       0.1333771792203793  0.44811922744132393           0.6143331367316028 1.0000   
         C         C         1.0       0.12762887020586008           0.430318309139199  0.5778058006802295 1.0000   
         H         H         1.0       0.1382481952698616  0.4733162786307073  0.609141171956546  1.0000   
         H         H         1.0       0.15520635926478055           0.43814865835990263          0.6305824242493178 1.0000   
         H         H         1.0       0.10574900359747641           0.44075192227841864          0.5642457386347233 1.0000   
         H         H         1.0       0.12486728824537499           0.4037968204656917 0.5811682510843909 1.0000   
         C         C         1.0       0.5513897271443703  0.4385678996805966  0.007495351138935291         1.0000   
         C         C         1.0       0.5385806631765326  0.4727133216710797  0.017558435979981635         1.0000   
         H         H         1.0       0.5633389109679541  0.42831150503728393           0.03262102371632025          1.0000   
         H         H         1.0       0.5712063634984768  0.44406334836785794           0.9875594088003545 1.0000   
         H         H         1.0       0.5493669053556893  0.48362457210094084           0.04219033257543181          1.0000   
         H         H         1.0       0.513765291330595   0.4691217611802421  0.02795364543748291          1.0000   
         C         C         1.0       0.4861655325865946  0.9225797669463425  0.6506044843933052 1.0000   
         C         C         1.0       0.4866446460674548  0.8892139479916936  0.6546982208593721 1.0000   
         C         C         1.0       0.5030825732960423  0.8757488917969214  0.683601249635921  1.0000   
         C         C         1.0       0.5155418121516282  0.8933233821782095  0.713057920249551  1.0000   
         C         C         1.0       0.5104788315587839  0.9276267508593573  0.7111701664630924 1.0000   
         C         C         1.0       0.4982364968307961  0.940909698776201   0.6795410261839513 1.0000   
         H         H         1.0       0.4763090138392478  0.873743010224814   0.6305258558357628 1.0000   
         H         H         1.0       0.5037251523998852  0.8507432502919594  0.6840251438009348 1.0000   
         H         H         1.0       0.5173626597045308  0.9439396089538777  0.733172666185389  1.0000   
         H         H         1.0       0.49698920487285453           0.9663850289943703 0.6785676203970094 1.0000   
         C         C         1.0       0.5921738356935073  0.9114257995520895  0.7348928399580504 1.0000   
         C         C         1.0       0.57161567409222    0.8857953369692267  0.7229025521019894 1.0000   
         C         C         1.0       0.5805108175793376  0.868896035861399   0.6931928199893889 1.0000   
         C         C         1.0       0.6089030467871676  0.8747507208788157  0.6743796329980363 1.0000   
         C         C         1.0       0.10988808774780141           0.9859407387446114 0.6699781889793862 1.0000   
         C         C         1.0       0.0791473321644045  0.9961290753438639  0.6799252474945832 1.0000   
         C         C         1.0       0.5386141927587028  0.8777353443350283  0.7438177162296024 1.0000   
         C         C         1.0       0.5298670857984785  0.8398218712602137  0.7511036365905416 1.0000   
         C         C         1.0       0.554920312163398   0.8170077737150061  0.7514237316419293 1.0000   
         C         C         1.0       0.5483438304493128  0.7839664168609145  0.7480252886198203 1.0000   
         C         C         1.0       0.5169512952161731  0.7735470906577874  0.7403780791477166 1.0000   
         C         C         1.0       0.49241655800266165           0.7956301555587518 0.7476467981285356 1.0000   
         C         C         1.0       0.49825674295355965           0.8284565921034954 0.7535967266533783 1.0000   
         C         C         1.0       0.5610786811667366  0.8907316680450096  0.8088375862820149 1.0000   
         C         C         1.0       0.5591605353910127  0.9074289791227514  0.8410669427829413 1.0000   
         C         C         1.0       0.5298326965166126  0.9212913838016529  0.8538529624059277 1.0000   
         C         C         1.0       0.5021336046227822  0.9131372522143846  0.832663261812353  1.0000   
         C         C         1.0       0.5041916362953086  0.8990537432687677  0.798600704759262  1.0000   
         C         C         1.0       0.5344088532980096  0.8899211014545817  0.7852852910845758 1.0000   
         C         C         1.0       0.5298230124558315  0.9485346895013034  0.8856706369902753 1.0000   
         C         C         1.0       0.4471425993724349  0.9475090038427122  0.9620932400742951 1.0000   
         C         C         1.0       0.45382741906059143           0.9208720816489208 0.9396856951902427 1.0000   
         C         C         1.0       0.4805379511511885  0.9207471511472981  0.9159885178168156 1.0000   
         C         C         1.0       0.4988475788412706  0.9486796497445944  0.9127446265043815 1.0000   
         C         C         1.0       0.4904838279131649  0.9752189019133357  0.933871874159986  1.0000   
         C         C         1.0       0.46379603296690425           0.9761412392442326 0.9566727146714266 1.0000   
         C         C         1.0       0.5326940287013853  0.9835452688650466  0.8650900780929036 1.0000   
         C         C         1.0       0.5216147631968346  0.9886534696727857  0.8291442604133826 1.0000   
         C         C         1.0       0.5180857088452107  0.01960737882733743           0.8150774904111849 1.0000   
         C         C         1.0       0.5293693252166307  0.04651367267467843           0.8337570768244177 1.0000   
         C         C         1.0       0.5421889166782718  0.0418182615468059  0.8690704079185468 1.0000   
         C         C         1.0       0.5432153774263441  0.012070513431186924         0.8838313217168037 1.0000   
         C         C         1.0       0.5594960320518997  0.9214958901568899  0.9442906909817494 1.0000   
         C         C         1.0       0.584764485493151   0.9233678376301314  0.9714792859211132 1.0000   
         C         C         1.0       0.6119959635845856  0.9417949333320585  0.9660871208322053 1.0000   
         C         C         1.0       0.6159904075190153  0.9561498069610025  0.9321052622565662 1.0000   
         C         C         1.0       0.5911967964857145  0.9540832666872032  0.9066840158748297 1.0000   
         C         C         1.0       0.5602685069114544  0.9420832392756803  0.9136567692366357 1.0000   
         H         H         1.0       0.5874630539995257  0.9254236063794165  0.7579777376633252 1.0000   
         H         H         1.0       0.5659887157925163  0.8481146639954148  0.683656172119343  1.0000   
         H         H         1.0       0.14343395816092502           0.9442639103844979 0.6698879139496603 1.0000   
         H         H         1.0       0.07215068830455262           0.02238572805782968          0.6783542214382813 1.0000   
         H         H         1.0       0.5803365756382124  0.8248812721998102  0.7532617833832577 1.0000   
         H         H         1.0       0.56889495049954    0.7664405020925346  0.7477285736482383 1.0000   
         H         H         1.0       0.4673516464262281  0.7875680678722976  0.7465145324184405 1.0000   
         H         H         1.0       0.47542089848366365           0.8439511567161789 0.7552753969806633 1.0000   
         H         H         1.0       0.5835099409591155  0.8809193737767025  0.8018321757546638 1.0000   
         H         H         1.0       0.5819537601365817  0.9126994369605613  0.8535516314051266 1.0000   
         H         H         1.0       0.4772896745172916  0.9232402730705128  0.8370822013662681 1.0000   
         H         H         1.0       0.48081397368778434           0.8979640689638877 0.7829035770404922 1.0000   
         H         H         1.0       0.4394576515477896  0.8989871635397713  0.940223769256278  1.0000   
         H         H         1.0       0.48826864127657466           0.8979477954070595 0.9028709174550862 1.0000   
         H         H         1.0       0.504704132108503   0.9960987659727647  0.9362270641659082 1.0000   
         H         H         1.0       0.461032447642404   0.9954677981203938  0.9770717053919157 1.0000   
         H         H         1.0       0.5158932219950937  0.9690013551881675  0.809366090828623  1.0000   
         H         H         1.0       0.5114077908272233  0.023013110741164633         0.7872014513982738 1.0000   
         H         H         1.0       0.5497839427235087  0.06326783184799534           0.8852892429600888 1.0000   
         H         H         1.0       0.5544885048654641  0.012389040535315532         0.9125189441311684 1.0000   
         H         H         1.0       0.5367160000297801  0.9073158544804091  0.9527522206412798 1.0000   
         H         H         1.0       0.5843658787521069  0.9085434011047107  0.9966363499980372 1.0000   
         H         H         1.0       0.6364172276709298  0.9689501139131663  0.9288723113241147 1.0000   
         H         H         1.0       0.594022854174047   0.966040060917571   0.8807432539359196 1.0000   
         C         C         1.0       0.2894627238418756  0.9202894488471932  0.3953120229802446 1.0000   
         C         C         1.0       0.2577255030433723  0.9326315956411345  0.3902753799161415 1.0000   
         C         C         1.0       0.23274590172372928           0.9188908579032635 0.4084890972917516 1.0000   
         C         C         1.0       0.23776514358198245           0.8921091493341725 0.43088508197343695          1.0000   
         C         C         1.0       0.26817619697128003           0.8776821521133332 0.43365806586762645          1.0000   
         C         C         1.0       0.293080797335333   0.8927152742344755  0.4159010037146292 1.0000   
         H         H         1.0       0.25228594844870533           0.9529760527620067 0.37292029090687345          1.0000   
         H         H         1.0       0.20917484046806284           0.9283085636118065 0.40811043561467547          1.0000   
         H         H         1.0       0.27342276497028034           0.8556002515240185 0.45019542227738757          1.0000   
         H         H         1.0       0.3176805569524562  0.8816889425208054  0.4165268732556382 1.0000   
         C         C         1.0       0.206387770748679   0.8267221614120391  0.44793922818680904          1.0000   
         C         C         1.0       0.20814754313700645           0.8503830827090638 0.4738006461226562 1.0000   
         C         C         1.0       0.2061412292842042  0.839607115157227   0.5105825919022801 1.0000   
         C         C         1.0       0.19650651907705102           0.808370101883007  0.5182884576221242 1.0000   
         C         C         1.0       0.18896392238472187           0.786666657231233  0.490858417713397  1.0000   
         C         C         1.0       0.19397453945498855           0.7952669513232167 0.45566571214292306          1.0000   
         C         C         1.0       0.21001542113133184           0.8868556864988886 0.4609051954015599 1.0000   
         C         C         1.0       0.1725295580439603  0.8912852414394175  0.4487460715381639 1.0000   
         C         C         1.0       0.14932199455392844           0.8971494812525945 0.47607102833338616          1.0000   
         C         C         1.0       0.11689099294675927           0.8865329512151361 0.47344388796153086          1.0000   
         C         C         1.0       0.10468026858830103           0.877854941693278  0.4399896442965382 1.0000   
         C         C         1.0       0.1250621144315926  0.87492817428111    0.4107378582440204 1.0000   
         C         C         1.0       0.15868830929508537           0.8811970336506898 0.4147329262627758 1.0000   
         C         C         1.0       0.24997098066467316           0.9058092518279101 0.5146631342771126 1.0000   
         C         C         1.0       0.2649019422862801  0.9288104395088879  0.5348201141773667 1.0000   
         C         C         1.0       0.2576129250539206  0.9614858193438796  0.5285406787136551 1.0000   
         C         C         1.0       0.23189415214001993           0.9691442643762528 0.5027565902925514 1.0000   
         C         C         1.0       0.2152168673529447  0.9446734078681708  0.48693952924828565          1.0000   
         C         C         1.0       0.22480420543493077           0.9130470420418131 0.4909505983785915 1.0000   
         C         C         1.0       0.27365124196271917           0.991051361288     0.5506858169473423 1.0000   
         C         C         1.0       0.179096029850053   0.009123245921833556         0.600581608181834  1.0000   
         C         C         1.0       0.20074885451792657           0.9859285491269513 0.6135916560897914 1.0000   
         C         C         1.0       0.23139761711160303           0.9843367182807223 0.5996028537952364 1.0000   
         C         C         1.0       0.2414872456627399  0.003799570480736758         0.5727486881056897 1.0000   
         C         C         1.0       0.22099744999563284           0.02822152878606987          0.5596814565387435 1.0000   
         C         C         1.0       0.1893391526361354  0.03042115671682466           0.5730735178794848 1.0000   
         C         C         1.0       0.2877268647613819  0.01882121535093284           0.5256610856260331 1.0000   
         C         C         1.0       0.29688756488813345           0.012208968633331985         0.48928681277641517          1.0000   
         C         C         1.0       0.3152863325930969  0.03373814536803432           0.47042924039083767          1.0000   
         C         C         1.0       0.32020445466756753           0.06542117063422115          0.48428968294794844          1.0000   
         C         C         1.0       0.31078546481422414           0.07286561608380926          0.5187929767530869 1.0000   
         C         C         1.0       0.2955782538245222  0.05089572082942184           0.5401682675490452 1.0000   
         C         C         1.0       0.3056608288365919  0.9977643552736444  0.6139270791474755 1.0000   
         C         C         1.0       0.3310055046949986  0.9907034800158501  0.6364900942908023 1.0000   
         C         C         1.0       0.35723780044727843           0.971318992892742  0.624858991514714  1.0000   
         C         C         1.0       0.35690595923797797           0.9583095107545924 0.5892857697072271 1.0000   
         C         C         1.0       0.3291396541205459  0.9630271212938113  0.567413297941603  1.0000   
         C         C         1.0       0.3030337285036007  0.9824032762973421  0.5789741799811785 1.0000   
         H         H         1.0       0.20810989778856367           0.8338463081811748 0.41814558610162816          1.0000   
         H         H         1.0       0.21191461557511834           0.8550750045113548 0.5333620033637934 1.0000   
         H         H         1.0       0.19704647164670788           0.8015530708094941 0.5472424522029974 1.0000   
         H         H         1.0       0.186068572758569   0.7807259290246077  0.4320620514497131 1.0000   
         H         H         1.0       0.1587482269676713  0.9058324360452531  0.5026623753942286 1.0000   
         H         H         1.0       0.100509676323542   0.888171687558642   0.4971397340255906 1.0000   
         H         H         1.0       0.1175149890229904  0.8631928397195009  0.3873775684815779 1.0000   
         H         H         1.0       0.1753090387814665  0.874943117982021   0.3916247992353433 1.0000   
         H         H         1.0       0.25902765870260414           0.8812939941448115 0.5165401749477381 1.0000   
         H         H         1.0       0.2816842456481417  0.9213651903048199  0.5553075964834474 1.0000   
         H         H         1.0       0.22294951524960044           0.9941715714760303 0.49665693196695787          1.0000   
         H         H         1.0       0.19510859117978316           0.9516412005376204 0.47127664624419946          1.0000   
         H         H         1.0       0.19086307957422316           0.9684055671528579 0.6319125934011496 1.0000   
         H         H         1.0       0.2496295927158233  0.9654049378510059  0.6096076990879782 1.0000   
         H         H         1.0       0.225594844217446   0.04400738135849913           0.5387183557205646 1.0000   
         H         H         1.0       0.17182637699706757           0.04651655583986103          0.5655507459486794 1.0000   
         H         H         1.0       0.29691290725090747           0.9888474450611882 0.47625723146017696          1.0000   
         H         H         1.0       0.3243012195317534  0.028003690202242915         0.44326902065210144          1.0000   
         H         H         1.0       0.31460455047481595           0.0963632311356688 0.5311121292799883 1.0000   
         H         H         1.0       0.2899602712759883  0.05561769893744084           0.5691113224891009 1.0000   
         H         H         1.0       0.28742038214755133           0.014035246848082883         0.6226293897762459 1.0000   
         H         H         1.0       0.32641917189322667           0.0014193875238399656        0.6627263940290584 1.0000   
         H         H         1.0       0.37601811321831086           0.9416733901142766 0.5820600363075323 1.0000   
         H         H         1.0       0.3286150620428454  0.9537934679222133  0.5395132060320137 1.0000   
         C         C         1.0       0.24891923155290635           0.7981436183751172 0.15540040927532622          1.0000   
         C         C         1.0       0.24509684402920304           0.767398397955833  0.1705097982655439 1.0000   
         C         C         1.0       0.22576179754848733           0.7650482685260943 0.20239836230938307          1.0000   
         C         C         1.0       0.21192420317956714           0.7930571318121008 0.21806467662157633          1.0000   
         C         C         1.0       0.2186031166188962  0.8233734802627762  0.20326984556397137          1.0000   
         C         C         1.0       0.2355883963682453  0.8258878468754705  0.1707645902841242 1.0000   
         H         H         1.0       0.25832031483220474           0.74616262065414   0.16137553773754912          1.0000   
         H         H         1.0       0.21865929455523797           0.741086793316859  0.2094488476469674 1.0000   
         H         H         1.0       0.20625395526115603           0.8463983682290597 0.21381309460212958          1.0000   
         H         H         1.0       0.23868409097562246           0.8509708668600676 0.16078426307374513          1.0000   
         C         C         1.0       0.6051402745628883  0.6403238120740317  0.22967424350460552          1.0000   
         C         C         1.0       0.6068631709027367  0.6730834226194345  0.22219067343289206          1.0000   
         C         C         1.0       0.5776528385048215  0.6901438055235182  0.22134152566547236          1.0000   
         C         C         1.0       0.5475447120278281  0.6750091394744087  0.2219779423927723 1.0000   
         C         C         1.0       0.5479930439383202  0.640442927628963   0.2223823639677061 1.0000   
         C         C         1.0       0.5765326470703307  0.6245587717539173  0.23011198763988977          1.0000   
         C         C         1.0       0.18936758149419203           0.7900251991068966 0.25284477443086084          1.0000   
         C         C         1.0       0.19011902977083378           0.8203584781523109 0.2812691529605514 1.0000   
         C         C         1.0       0.1613303522581706  0.8282118780269742  0.29630180723834804          1.0000   
         C         C         1.0       0.15710216931356266           0.858295667330442  0.3150853211094987 1.0000   
         C         C         1.0       0.18202975402542998           0.8804436494969795 0.3168681966451832 1.0000   
         C         C         1.0       0.2129474023826727  0.8697708358797338  0.3079021684535296 1.0000   
         C         C         1.0       0.2168596331492718  0.8397694437237995  0.2896670519029259 1.0000   
         C         C         1.0       0.18109222521390178           0.7410924233001572 0.2968495605666297 1.0000   
         C         C         1.0       0.19252911092432712           0.7182570942033593 0.3219920471347324 1.0000   
         C         C         1.0       0.22576687067265813           0.7147516481669212 0.32935753628881126          1.0000   
         C         C         1.0       0.24582033199630007           0.7391202782290215 0.31640468316659326          1.0000   
         C         C         1.0       0.23560802838753583           0.7619315182275989 0.29226973666568073          1.0000   
         C         C         1.0       0.20140619874063917           0.7642898209872979 0.2807380457839177 1.0000   
         C         C         1.0       0.24222628233112578           0.6860660587112134 0.3546682645418507 1.0000   
         C         C         1.0       0.21505144443007407           0.7143822713491645 0.46595775202107376          1.0000   
         C         C         1.0       0.1953597485826886  0.6929983443698834  0.4459301045925979 1.0000   
         C         C         1.0       0.20485749625123095           0.6847032437980234 0.41131318031029007          1.0000   
         C         C         1.0       0.23182620648704708           0.6986013727173069 0.39434819924213127          1.0000   
         C         C         1.0       0.24920233539250558           0.7216369185360112 0.4152723009520164 1.0000   
         C         C         1.0       0.23989271328627865           0.7304053794751649 0.45001648749692075          1.0000   
         C         C         1.0       0.28070267768731944           0.6781044677878706 0.3498446437346018 1.0000   
         C         C         1.0       0.29655665874573395           0.6730931556789581 0.3179392172878616 1.0000   
         C         C         1.0       0.32567832281342723           0.6576940889137636 0.3171018850499717 1.0000   
         C         C         1.0       0.34277041975206163           0.6477361284409799 0.3484213146361964 1.0000   
         C         C         1.0       0.3287231757099286  0.6548912192023703  0.38198111463088613          1.0000   
         C         C         1.0       0.29799196807572054           0.6683909608577364 0.38299586630670374          1.0000   
         C         C         1.0       0.23287351453554897           0.6248559364764721 0.3698106093753062 1.0000   
         C         C         1.0       0.2301730981982598  0.5933458125877857  0.3588991100108571 1.0000   
         C         C         1.0       0.22219723732491184           0.5847647826109575 0.3230943774858764 1.0000   
         C         C         1.0       0.21991767087869077           0.6107630914974324 0.297349437442471  1.0000   
         C         C         1.0       0.2203165345579348  0.6428993501544421  0.30857874999480484          1.0000   
         C         C         1.0       0.22889866710850276           0.6506706384265648 0.34423940305862794          1.0000   
         H         H         1.0       0.628837529448195   0.62674826905254    0.23308941563497867          1.0000   
         H         H         1.0       0.576374774786392   0.7170843090964677  0.21676758011140396          1.0000   
         H         H         1.0       0.5259152865291438  0.6895327743042822  0.218624158942817  1.0000   
         H         H         1.0       0.5745197235493472  0.5982188999072906  0.23109073965673352          1.0000   
         H         H         1.0       0.1413816942894666  0.8106899582751684  0.29336853086944586          1.0000   
         H         H         1.0       0.13312872101408402           0.8637252064798069 0.32410270114132117          1.0000   
         H         H         1.0       0.23421078088118855           0.8859956247296065 0.3141345342275189 1.0000   
         H         H         1.0       0.2391874857181356  0.8315223607249864  0.2795816008771564 1.0000   
         H         H         1.0       0.6269328097199953  0.6744588537869274  0.2920628705670239 1.0000   
         H         H         1.0       0.17327678546333125           0.7008146717579229 0.3313327773511523 1.0000   
         H         H         1.0       0.27098849607007564           0.7381982436930089 0.32407566502646057          1.0000   
         H         H         1.0       0.2529842548564415  0.780852059726173   0.2829376447242751 1.0000   
         H         H         1.0       0.1739044648740714  0.6838521000499458  0.45907654591951247          1.0000   
         H         H         1.0       0.19095438841656445           0.6690604405504609 0.3950414908250161 1.0000   
         H         H         1.0       0.2705892166623219  0.7322218026313156  0.40356310057826245          1.0000   
         H         H         1.0       0.25355336508520127           0.7453770394682266 0.4674697816207943 1.0000   
         H         H         1.0       0.2848976464480431  0.6772973494911764  0.2926937156753495 1.0000   
         H         H         1.0       0.3346289102355537  0.6518110334415432  0.29029695042954357          1.0000   
         H         H         1.0       0.339341600630774   0.6472474664478665  0.40797749431283786          1.0000   
         H         H         1.0       0.2863449969468337  0.6691387018529182  0.4092954530289548 1.0000   
         H         H         1.0       0.2406585840840437  0.6287333767161442  0.3978519503459403 1.0000   
         H         H         1.0       0.23294286589257007           0.5749921934311106 0.37990436722641785          1.0000   
         H         H         1.0       0.21474444283086416           0.6031316342287337 0.2687047285622587 1.0000   
         H         H         1.0       0.22004786484643496           0.6618043110503011 0.28737649308892727          1.0000   
         C         C         1.0       0.3718957094673589  0.8514891809927476  0.9398362973122277 1.0000   
         C         C         1.0       0.4040595508007646  0.8518214318665778  0.9308950254604736 1.0000   
         C         C         1.0       0.4262608196584432  0.8336886472627532  0.9508786553579812 1.0000   
         C         C         1.0       0.4175712421827907  0.8165447906048927  0.9818627663540606 1.0000   
         C         C         1.0       0.38468909378763516           0.8158717108870573 0.9904340263458641 1.0000   
         C         C         1.0       0.36174983455426896           0.829793006375896  0.9672243441058219 1.0000   
         H         H         1.0       0.4118264523102449  0.865045758561511   0.9082937470137951 1.0000   
         H         H         1.0       0.4511774446128064  0.8380391848384029  0.9435008127022636 1.0000   
         H         H         1.0       0.375229078871067   0.80576692576878    0.015802753246721535         1.0000   
         H         H         1.0       0.3355410665967491  0.8261367634614345  0.9732138262693235 1.0000   
         C         C         1.0       0.4301336381451293  0.8520357014266908  0.05432848020182779          1.0000   
         C         C         1.0       0.45228889525232635           0.8395775436819646 0.029567563148496845         1.0000   
         C         C         1.0       0.4767269330356864  0.858872176343635   0.017157600057491562         1.0000   
         C         C         1.0       0.475727608988433   0.8913339348822636  0.022608165832548544         1.0000   
         C         C         1.0       0.4479459128559748  0.9044045776007201  0.040369173911208645         1.0000   
         C         C         1.0       0.42574867805478994           0.8844150665231226 0.056976095650402625         1.0000   
         C         C         1.0       0.44611336270359847           0.8042772092654574 0.009363384383877849         1.0000   
         C         C         1.0       0.47899310784179144           0.7875220909460612 0.9951175461324238 1.0000   
         C         C         1.0       0.5080665568785498  0.787334573037017   0.016245277201881736         1.0000   
         C         C         1.0       0.5384948434086094  0.7811663121792201  0.0011541313526584052        1.0000   
         C         C         1.0       0.5391356664983237  0.7741764106940436  0.9646449619419432 1.0000   
         C         C         1.0       0.5106900663737706  0.770034343097554   0.9435566286068963 1.0000   
         C         C         1.0       0.4808607164867217  0.7766195112787744  0.9603979324977822 1.0000   
         C         C         1.0       0.4431248226984603  0.7789219472011898  0.07674095934168745          1.0000   
         C         C         1.0       0.43094575713059513           0.7562738009101047 0.10033530502024113          1.0000   
         C         C         1.0       0.40977028317944586           0.7315639437215659 0.08807064860581093          1.0000   
         C         C         1.0       0.40493278421433015           0.7271927093609967 0.05159988063596299          1.0000   
         C         C         1.0       0.4176833218682717  0.7501426148811255  0.02766720536975731          1.0000   
         C         C         1.0       0.43504306694208145           0.7787020361952961 0.039216213751775086         1.0000   
         C         C         1.0       0.3945685062777525  0.7087336277294892  0.11951538621602742          1.0000   
         C         C         1.0       0.4812921412966553  0.6496057516259274  0.15538593085457716          1.0000   
         C         C         1.0       0.4669820167195697  0.6716428892390489  0.17980769029587965          1.0000   
         C         C         1.0       0.4420840644293722  0.692539224784245   0.16928994057251026          1.0000   
         C         C         1.0       0.4285707946839452  0.6909879427125245  0.13241691950098566          1.0000   
         C         C         1.0       0.4442945901662712  0.6698687404468616  0.10858929175560461          1.0000   
         C         C         1.0       0.4702922107831056  0.6503980974012347  0.1190148419804518 1.0000   
         C         C         1.0       0.3719385834382216  0.6777006196954627  0.10979267180245378          1.0000   
         C         C         1.0       0.35222948366503176           0.6750040741365423 0.07848511677211545          1.0000   
         C         C         1.0       0.3362320415341045  0.6472874618379357  0.07056887368511355          1.0000   
         C         C         1.0       0.33722276738161766           0.6207893998192516 0.09383226680513701          1.0000   
         C         C         1.0       0.3544700849392945  0.6240559728958175  0.12601661243660855          1.0000   
         C         C         1.0       0.37141020708691946           0.6514057178282096 0.13417448397989667          1.0000   
         C         C         1.0       0.3687558810260712  0.7173388395614262  0.18561174205090764          1.0000   
         C         C         1.0       0.35925729651738    0.7387341451617047  0.2129950140421923 1.0000   
         C         C         1.0       0.3522371521532017  0.7713339173630877  0.20585197361031335          1.0000   
         C         C         1.0       0.35258926741471036           0.7800786575524797 0.16855769781411434          1.0000   
         C         C         1.0       0.36242409706180523           0.7579192604349339 0.1429457848692477 1.0000   
         C         C         1.0       0.3743015534948399  0.7283257497206245  0.1513829329529095 1.0000   
         H         H         1.0       0.4103335958462303  0.8394144204707459  0.06392376782435472          1.0000   
         H         H         1.0       0.4954573654095918  0.8513574545975423  0.9957524858700162 1.0000   
         H         H         1.0       0.4909514419352497  0.9063756842304618  0.007404929317103459         1.0000   
         H         H         1.0       0.40329217021018643           0.8921283093927391 0.07173732630329033          1.0000   
         H         H         1.0       0.507256654889876   0.798190323239867   0.04398064053706907          1.0000   
         H         H         1.0       0.5601605561118395  0.7817708021024751  0.0161109707094369 1.0000   
         H         H         1.0       0.5125142130980214  0.7623090538092014  0.9149392153988193 1.0000   
         H         H         1.0       0.46022463292001065           0.773893442584004  0.9440261921326333 1.0000   
         H         H         1.0       0.4597893448475574  0.7965136144228357  0.08881038556158893          1.0000   
         H         H         1.0       0.4352371590907753  0.7563279967629651  0.1319355535724367 1.0000   
         H         H         1.0       0.390574477857804   0.7085223557571882  0.03927352607393875          1.0000   
         H         H         1.0       0.4130247648187569  0.7465998579125734  0.9984309977278748 1.0000   
         H         H         1.0       0.4743735006341626  0.6775190789821975  0.2076120376847005 1.0000   
         H         H         1.0       0.434693288660113   0.7100207370553178  0.18954250058102246          1.0000   
         H         H         1.0       0.4332085531458777  0.663638469263554   0.08162743724562183          1.0000   
         H         H         1.0       0.4809576367622978  0.631975184952844   0.10134240616283935          1.0000   
         H         H         1.0       0.3489289023345832  0.6955701142029771  0.060849303874767724         1.0000   
         H         H         1.0       0.3248158964000441  0.6456112725365896  0.04481936429287203          1.0000   
         H         H         1.0       0.3576205404473296  0.602853154264444   0.14343739891098575          1.0000   
         H         H         1.0       0.3884250416367417  0.6508015853231272  0.15901655864310799          1.0000   
         H         H         1.0       0.37595782056753213           0.6936665032768444 0.19249131288699894          1.0000   
         H         H         1.0       0.3632151429223236  0.7301599001517608  0.24182476269367217          1.0000   
         H         H         1.0       0.34936207665468777           0.8047708395647551 0.15856465503782124          1.0000   
         H         H         1.0       0.36378933338489633           0.7647970727025917 0.11566625723666979          1.0000   
         C         C         1.0       0.22691199294531228           0.7618780389593696 0.08312319485116348          1.0000   
         C         C         1.0       0.2450946706264385  0.7357236207025409  0.07205169286550506          1.0000   
         C         C         1.0       0.23135311780511833           0.7053974193872591 0.07673385435856717          1.0000   
         C         C         1.0       0.20061252554037096           0.7008598499290597 0.0921866998407701 1.0000   
         C         C         1.0       0.18273410083418903           0.7283265865973984 0.10107903270230745          1.0000   
         C         C         1.0       0.19574416710222267           0.7591890992135892 0.09811169542041132          1.0000   
         H         H         1.0       0.2718151704722944  0.7394826219434114  0.06825177827325235          1.0000   
         H         H         1.0       0.24833142790836854           0.6849565261133993 0.07213462124676995          1.0000   
         H         H         1.0       0.1580819964384614  0.7275105139069902  0.11302147258129835          1.0000   
         H         H         1.0       0.1830250055703454  0.7820932270536547  0.10578282657205929          1.0000   
         C         C         1.0       0.15959923456942754           0.6771452244625836 0.15903162483986644          1.0000   
         C         C         1.0       0.16070758788575776           0.658696938464485  0.12764462638061458          1.0000   
         C         C         1.0       0.14135444131869207           0.6310276922072777 0.12456220939240037          1.0000   
         C         C         1.0       0.3049556842649072  0.11968687177852977           0.0704215421870853 1.0000   
         C         C         1.0       0.2970690560926025  0.09908933828141642           0.10081043695531289          1.0000   
         C         C         1.0       0.26950977217833816           0.10680830459532809          0.12127757992580895          1.0000   
         C         C         1.0       0.18401367802217744           0.6658547210898793 0.0947809340635346 1.0000   
         C         C         1.0       0.2128124115451548  0.6396140736904149  0.10564482781823514          1.0000   
         C         C         1.0       0.21326400553607078           0.6093227339084685 0.08777315293697119          1.0000   
         C         C         1.0       0.23864052928958374           0.5871032028968451 0.09244940318131678          1.0000   
         C         C         1.0       0.2642814859299553  0.5954219808981972  0.1160731415946552 1.0000   
         C         C         1.0       0.26053114928664395           0.6206023975552274 0.13983887216009983          1.0000   
         C         C         1.0       0.23538755469896633           0.6425228256647504 0.1349440909503241 1.0000   
         C         C         1.0       0.13736366524343221           0.6758213583942658 0.0497675252093277 1.0000   
         C         C         1.0       0.12269423550484952           0.6815505125199636 0.016602601503949543         1.0000   
         C         C         1.0       0.14289440029181197           0.6829489033267684 0.9868225389762123 1.0000   
         C         C         1.0       0.17573112860469337           0.6721130744206103 0.9910665537454497 1.0000   
         C         C         1.0       0.18692688121066992           0.6603387083118029 0.024262300719494645         1.0000   
         C         C         1.0       0.1680230280039481  0.663409691639303   0.05450019650532267          1.0000   
         C         C         1.0       0.13016237193351257           0.7004582006400767 0.9490813309947169 1.0000   
         C         C         1.0       0.16958035001274294           0.6850146165079019 0.8393501090986986 1.0000   
         C         C         1.0       0.17214437972595945           0.6596866707881001 0.8656016100002277 1.0000   
         C         C         1.0       0.1642532503222646  0.6651703325717001  0.903100000302066  1.0000   
         C         C         1.0       0.15096051804617153           0.6950518095690956 0.9129038059728652 1.0000   
         C         C         1.0       0.14824088429065027           0.7192103952132759 0.8865521234508551 1.0000   
         C         C         1.0       0.1577296280259294  0.7156531883697107  0.8509856837682253 1.0000   
         C         C         1.0       0.12790374251016254           0.7383069188008496 0.9635361111072817 1.0000   
         C         C         1.0       0.15806002642386058           0.7521184843692088 0.9765000048033363 1.0000   
         C         C         1.0       0.1560895285382189  0.7752919555205885  0.00403905986980746          1.0000   
         C         C         1.0       0.12623103272049424           0.786807092800071  0.017264172079778595         1.0000   
         C         C         1.0       0.09829958166927089           0.7770726373404263 0.9999891017727075 1.0000   
         C         C         1.0       0.0986406953351111  0.7540310300619462  0.9729709344718879 1.0000   
         C         C         1.0       0.09389124409686155           0.6496277761299246 0.9418798196936057 1.0000   
         C         C         1.0       0.07106416472944233           0.6321225024127072 0.9227141026846762 1.0000   
         C         C         1.0       0.04806917530275068           0.6492169205528884 0.9026645022720274 1.0000   
         C         C         1.0       0.049640634680731655          0.6819197480657008 0.8976722066468342 1.0000   
         C         C         1.0       0.07370652217078555           0.6985159176881159 0.9149006179750978 1.0000   
         C         C         1.0       0.09735336584402131           0.6836633347915698 0.9388711769679587 1.0000   
         H         H         1.0       0.17492046244819362           0.6987894486474798 0.1641768811817879 1.0000   
         H         H         1.0       0.1392443079458916  0.6175321381388382  0.0979507121137877 1.0000   
         H         H         1.0       0.3243424654223512  0.11508704113024781           0.0508170865627775 1.0000   
         H         H         1.0       0.26735915376348107           0.094966097739003  0.1464516763549415 1.0000   
         H         H         1.0       0.19334849003993715           0.6029104107781669 0.06969861291508517          1.0000   
         H         H         1.0       0.23806796772740604           0.5642741279924061 0.07789346142933562          1.0000   
         H         H         1.0       0.27732024653744064           0.6286174000292105 0.1587304179955941 1.0000   
         H         H         1.0       0.23543148955215942           0.6652370646866358 0.15115786391410113          1.0000   
         H         H         1.0       0.12380566055309267           0.6838340731911299 0.07442314102988923          1.0000   
         H         H         1.0       0.0995064751510577  0.6950444648845879  0.015265251701520155         1.0000   
         H         H         1.0       0.192142824969886   0.6752067476127104  0.9695132417873302 1.0000   
         H         H         1.0       0.21282548885408029           0.6529823108691301 0.026855758033163646         1.0000   
         H         H         1.0       0.17792959594810048           0.6356973001314843 0.8577995612237522 1.0000   
         H         H         1.0       0.16445438065777968           0.6454943467231934 0.9218024654887641 1.0000   
         H         H         1.0       0.13625950341572116           0.7411301452879878 0.896976484957305  1.0000   
         H         H         1.0       0.15787801779585062           0.7359123046505928 0.8319494659364841 1.0000   
         H         H         1.0       0.18246298341634679           0.7401658390880327 0.972863827543566  1.0000   
         H         H         1.0       0.18043265964471297           0.7835490512364659 0.014119590933160175         1.0000   
         H         H         1.0       0.0764225517807613  0.7897673740405989  0.007532808478113218         1.0000   
         H         H         1.0       0.07455277953446693           0.7427041572142343 0.9681567413016291 1.0000   
         H         H         1.0       0.11404294343710406           0.6344705427742712 0.9526143374917301 1.0000   
         H         H         1.0       0.06748055583689272           0.6065528130859953 0.9245268817875119 1.0000   
         H         H         1.0       0.03482669137053862           0.6927594080869011 0.8758636159106307 1.0000   
         H         H         1.0       0.07507253982636408           0.7236872829904926 0.9120212083437165 1.0000   
         C         C         1.0       0.33822002019425523           0.8499747096606342 0.8542646645914032 1.0000   
         C         C         1.0       0.362315321019674   0.8265240387497041  0.850992512650982  1.0000   
         C         C         1.0       0.3573446510701176  0.7977906306893118  0.8324843607623633 1.0000   
         C         C         1.0       0.32679817924330284           0.791249636593578  0.8179493033462414 1.0000   
         C         C         1.0       0.3042187104477726  0.8159785039653992  0.8173017050462719 1.0000   
         C         C         1.0       0.30891664364687443           0.8450704504123192 0.8352476196116898 1.0000   
         H         H         1.0       0.386623901829628   0.8284160086480221  0.8601726079507163 1.0000   
         H         H         1.0       0.3769749083217159  0.7822228174331015  0.8310927959080654 1.0000   
         H         H         1.0       0.2815709228477271  0.8123667841163995  0.8013290602317509 1.0000   
         H         H         1.0       0.28886660583624046           0.8634968031070913 0.8334363131816198 1.0000   
         C         C         1.0       0.26086088602461344           0.7528201652327831 0.8147793426130274 1.0000   
         C         C         1.0       0.2864936549338628  0.7432426394215069  0.7942724758701835 1.0000   
         C         C         1.0       0.2802014362099411  0.721292295544882   0.7652531214038959 1.0000   
         C         C         1.0       0.24980277083954924           0.7101815387877249 0.7575272670880756 1.0000   
         C         C         1.0       0.22399956641169963           0.719778817487271  0.7802216162278997 1.0000   
         C         C         1.0       0.22923278736117997           0.7412556710001272 0.8082410763214855 1.0000   
         C         C         1.0       0.3218192268943479  0.7570166543663427  0.7984783326044188 1.0000   
         C         C         1.0       0.33743358547730873           0.7282110451775728 0.8198629009705883 1.0000   
         C         C         1.0       0.3497355816090915  0.7012362688099574  0.803197535329984  1.0000   
         C         C         1.0       0.36731080032587676           0.6771810518545174 0.823625466735558  1.0000   
         C         C         1.0       0.366888536468014   0.677367016697761   0.8618512967798004 1.0000   
         C         C         1.0       0.35082555875897686           0.7027625790433906 0.8784429170367041 1.0000   
         C         C         1.0       0.33699944620619104           0.7281128613859542 0.8584632158443232 1.0000   
         C         C         1.0       0.32148721351708687           0.7832240026089846 0.7333459345941468 1.0000   
         C         C         1.0       0.3358245958073045  0.7939887378130588  0.7033211646958865 1.0000   
         C         C         1.0       0.3687062048847098  0.7880824163609979  0.6964233735109958 1.0000   
         C         C         1.0       0.38697164663215705           0.773015519240742  0.7237093971510967 1.0000   
         C         C         1.0       0.3721246974906344  0.7603794385363353  0.7547423075706565 1.0000   
         C         C         1.0       0.3382442312192704  0.7657840375146682  0.7593462769682267 1.0000   
         C         C         1.0       0.384840299987559   0.7995327952372583  0.6584889631381938 1.0000   
         C         C         1.0       0.3328399741218604  0.7689555673280837  0.5566588058584523 1.0000   
         C         C         1.0       0.3221856116150588  0.7573859651739061  0.5905819173754282 1.0000   
         C         C         1.0       0.3378335276500599  0.7669300155873237  0.6217619667672842 1.0000   
         C         C         1.0       0.36353346047755    0.7894073929010746  0.6209318572435265 1.0000   
         C         C         1.0       0.3719564924020819  0.8026287100735602  0.5884236329539526 1.0000   
         C         C         1.0       0.3580416243382561  0.7913483903159192  0.5552683802629442 1.0000   
         C         C         1.0       0.4199525363859053  0.7811910687455994  0.6519273032518599 1.0000   
         C         C         1.0       0.4220568175072577  0.7485740415942728  0.6576357228967974 1.0000   
         C         C         1.0       0.45163707840331274           0.7334103843929446 0.6620895706656774 1.0000   
         C         C         1.0       0.4802915793744409  0.7507702662884618  0.6637980697692704 1.0000   
         C         C         1.0       0.4784733885392783  0.7835576529502271  0.656451973128194  1.0000   
         C         C         1.0       0.44860234462966714           0.7992810497572739 0.6503481748302603 1.0000   
         C         C         1.0       0.3629034223102111  0.861126972303102   0.6461323945548658 1.0000   
         C         C         1.0       0.36577869950094655           0.8949507968449812 0.6528896523861868 1.0000   
         C         C         1.0       0.38831316414560507           0.9091988012444213 0.6777032448145356 1.0000   
         C         C         1.0       0.4067786072222344  0.887764616387611   0.697847354263511  1.0000   
         C         C         1.0       0.40794549378705447           0.8549472628869382 0.6894662881550219 1.0000   
         C         C         1.0       0.38636886841176715           0.8397464670108774 0.6631970370794713 1.0000   
         H         H         1.0       0.26343195084981325           0.7700783725375678 0.8369696434648901 1.0000   
         H         H         1.0       0.29973794155114875           0.7142773214154884 0.7462093305079261 1.0000   
         H         H         1.0       0.24497126593106794           0.6943629850024461 0.7342753474464188 1.0000   
         H         H         1.0       0.20991806601263094           0.7537831839074621 0.8221511389134711 1.0000   
         H         H         1.0       0.3501904467449675  0.6973692879872885  0.7733039106906507 1.0000   
         H         H         1.0       0.37751085768582043           0.6565613736006736 0.8083530885027274 1.0000   
         H         H         1.0       0.350818311186275   0.7045811551833985  0.909042457272454  1.0000   
         H         H         1.0       0.3247030797809621  0.7492823207717703  0.8715450207770218 1.0000   
         H         H         1.0       0.2968877840208788  0.7922888586090966  0.7382438681793476 1.0000   
         H         H         1.0       0.32378685626588755           0.8115759585763487 0.6871187876002817 1.0000   
         H         H         1.0       0.41360129365043913           0.7693444199218427 0.7243081755188197 1.0000   
         H         H         1.0       0.38948399564569675           0.7490949650848119 0.7747732453915577 1.0000   
         H         H         1.0       0.3027481621985403  0.7413423841072103  0.5892754029163373 1.0000   
         H         H         1.0       0.3317787258376592  0.7549208142478934  0.6469020641273383 1.0000   
         H         H         1.0       0.38954241637775494           0.8231255776551893 0.5884817325631012 1.0000   
         H         H         1.0       0.3618018699283598  0.8031492762293685  0.5280549845534898 1.0000   
         H         H         1.0       0.3999933499576313  0.7337752682792069  0.6643185161771098 1.0000   
         H         H         1.0       0.44972058247958    0.7077258866054077  0.6714442876252157 1.0000   
         H         H         1.0       0.5007825423172223  0.7977747887971511  0.6543948883799687 1.0000   
         H         H         1.0       0.4495328165720533  0.8250612820729871  0.6450540436736047 1.0000   
         H         H         1.0       0.343160996948792   0.8522180085063833  0.6291519138007162 1.0000   
         H         H         1.0       0.34707798738036216           0.909002279531683  0.6418519051644814 1.0000   
         H         H         1.0       0.4201170579948329  0.8962953396406419  0.7232219567489822 1.0000   
         H         H         1.0       0.42499696145619154           0.8361686806683486 0.701773547337947  1.0000   
         C         C         1.0       0.49887149707596096           0.9639205264494516 0.5552408834215691 1.0000   
         C         C         1.0       0.4829548571438465  0.95578598036779    0.522845258440712  1.0000   
         C         C         1.0       0.48238172711453875           0.9794691238236841 0.4953579221366293 1.0000   
         C         C         1.0       0.4967975384240225  0.0084009215951526  0.4996468356072899 1.0000   
         C         C         1.0       0.5149106840164329  0.014389412107443489         0.5317291234225715 1.0000   
         C         C         1.0       0.5171616945577306  0.9919422209309849  0.5580154601111534 1.0000   
         H         H         1.0       0.47182309462065425           0.9312542060438801 0.5187979023326492 1.0000   
         H         H         1.0       0.472710398759985   0.9732798934603452  0.46880738132717054          1.0000   
         H         H         1.0       0.5287409743503267  0.036470038611976285         0.536158801987289  1.0000   
         H         H         1.0       0.5339511303074184  0.9929757463716207  0.5825021239877708 1.0000   
         C         C         1.0       0.49909976638604403           0.08989796855232401          0.5058585201514172 1.0000   
         C         C         1.0       0.5101068808411333  0.07241628549488222           0.4757055326810775 1.0000   
         C         C         1.0       0.532488849938886   0.08782926175295147           0.45388744107521656          1.0000   
         C         C         1.0       0.36514843461414614           0.6967814336911972 0.47127942997464484          1.0000   
         C         C         1.0       0.3554305808909163  0.7048309389357531  0.5050349943259757 1.0000   
         C         C         1.0       0.37311622237143804           0.695916060223959  0.5352714073394907 1.0000   
         C         C         1.0       0.49430351965442154           0.03635341879123488          0.4675709247369521 1.0000   
         C         C         1.0       0.4587642815033737  0.044074663296378214         0.4551473065055923 1.0000   
         C         C         1.0       0.45148006991561157           0.06214500130751999          0.423852554471424  1.0000   
         C         C         1.0       0.41984677519947233           0.07176223855343533          0.4157130498022994 1.0000   
         C         C         1.0       0.3944005028251135  0.06394866892462292           0.43818047641516944          1.0000   
         C         C         1.0       0.4010702099003013  0.04674539711084669           0.4696345715628951 1.0000   
         C         C         1.0       0.4328134339591255  0.03541855130950933           0.47731581847927873          1.0000   
         C         C         1.0       0.5516646435135085  0.013129642185042867         0.44463488364108206          1.0000   
         C         C         1.0       0.5717965739198027  0.0024141107489781266        0.4174110850635325 1.0000   
         C         C         1.0       0.5602377742488399  0.998108030005999   0.3823780302673227 1.0000   
         C         C         1.0       0.5281474921724171  0.0035523604898788363        0.3756512512473755 1.0000   
         C         C         1.0       0.5066983844139041  0.011958943034791059         0.4023507277845635 1.0000   
         C         C         1.0       0.5175892817392832  0.018868839251122704         0.438134296546943  1.0000   
         C         C         1.0       0.5843879240102019  0.9916345047582072  0.3473157558255166 1.0000   
         C         C         1.0       0.5377745317856008  0.9497326714260732  0.24977945497911938          1.0000   
         C         C         1.0       0.5684482808734822  0.9651532693551748  0.24772414050109043          1.0000   
         C         C         1.0       0.581805171410033   0.978999372643646   0.277318860727681  1.0000   
         C         C         1.0       0.5691182648765573  0.973958738339826   0.3114671431436813 1.0000   
         C         C         1.0       0.5432239149524144  0.9528676202703608  0.3143579453191419 1.0000   
         C         C         1.0       0.526098839131946   0.94236913420164    0.28431535789986506          1.0000   
         C         C         1.0       0.6155840798099311  0.9672894910764261  0.3584701804419214 1.0000   
         C         C         1.0       0.6119578815489044  0.940666123028996   0.38285357005527304          1.0000   
         C         C         1.0       0.6375109082557882  0.9213802863632775  0.39183940981619464          1.0000   
         C         C         1.0       0.6674101355678956  0.9251437735196998  0.37605257630482297          1.0000   
         C         C         1.0       0.6707820827420148  0.9507546424199068  0.3501867589660786 1.0000   
         C         C         1.0       0.6453013517940358  0.9707486786720133  0.3422064289305112 1.0000   
         C         C         1.0       0.5701967717657892  0.04858453248283223           0.3163162419010126 1.0000   
         C         C         1.0       0.575987558524104   0.08173918928023616           0.31278293849892014          1.0000   
         C         C         1.0       0.6015964917614574  0.09618404414417014           0.3310770118327897 1.0000   
         C         C         1.0       0.6205972768808775  0.07901841211024574           0.3556521345592626 1.0000   
         C         C         1.0       0.6153573755640124  0.04596413820644685           0.3574902263551847 1.0000   
         C         C         1.0       0.5910977489288087  0.029671949668888864         0.3373411307204795 1.0000   
         H         H         1.0       0.48159993066810647           0.07766192656135806          0.5216147917953322 1.0000   
         H         H         1.0       0.5389280516530657  0.07804887091039459           0.42821024943454267          1.0000   
         H         H         1.0       0.3467834305629891  0.7007682077752319  0.4493802090418418 1.0000   
         H         H         1.0       0.3635104117243845  0.6974358012780516  0.5611951352823604 1.0000   
         H         H         1.0       0.47002830491125425           0.06993889741325265          0.40582852149856163          1.0000   
         H         H         1.0       0.41316181551708797           0.08898237908350937          0.39455500497476004          1.0000   
         H         H         1.0       0.3837551264409602  0.04394065051051377           0.4923173791132642 1.0000   
         H         H         1.0       0.437459030134103   0.025049817046869816         0.5032690429264677 1.0000   
         H         H         1.0       0.5604446814876299  0.01658014691268539           0.4729197029503506 1.0000   
         H         H         1.0       0.5959237487585978  0.9947195365182033  0.4236129479864603 1.0000   
         H         H         1.0       0.5181522503813536  0.005063563562186957         0.3479052111148237 1.0000   
         H         H         1.0       0.4809958965350306  0.014418170256416785         0.39187398815660074          1.0000   
         H         H         1.0       0.5781130784292074  0.9752003924954953  0.22248459423137176          1.0000   
         H         H         1.0       0.6048142969974851  0.9926494584431876  0.2719285696089415 1.0000   
         H         H         1.0       0.5340483104377708  0.9456915731927135  0.34016931154282004          1.0000   
         H         H         1.0       0.5050379592656912  0.9270782040878701  0.28759604898399355          1.0000   
         H         H         1.0       0.5881401774549337  0.9372815420467284  0.39550029040978346          1.0000   
         H         H         1.0       0.6362068973056214  0.903099229340679   0.41437887435698967          1.0000   
         H         H         1.0       0.6943784341331944  0.9543763639748906  0.3362158230790039 1.0000   
         H         H         1.0       0.647244857518805   0.986283139742411   0.3186190664856977 1.0000   
         H         H         1.0       0.550233826900434   0.04016314194115678           0.2994233942325307 1.0000   
         H         H         1.0       0.5617158444333751  0.09717467306574812           0.2955535647895598 1.0000   
         H         H         1.0       0.6407357782839879  0.0910503569048986  0.371960629244622  1.0000   
         H         H         1.0       0.6307020986271418  0.03051170319629115           0.3767092153274901 1.0000   
         C         C         1.0       0.3504616659894335  0.9887900088214827  0.3659411857400719 1.0000   
         C         C         1.0       0.33828199367711365           0.018501297865917365         0.3545901054319685 1.0000   
         C         C         1.0       0.3554044931070517  0.034462998962435876         0.32849021944758694          1.0000   
         C         C         1.0       0.38209550474199255           0.02164678625067129          0.3111620385813756 1.0000   
         C         C         1.0       0.3943559819459239  0.9908517689125486  0.3237572669146255 1.0000   
         C         C         1.0       0.378552267011731   0.9754297197062628  0.3506834259987396 1.0000   
         H         H         1.0       0.31466762911265483           0.027700570904366506         0.3630345663224508 1.0000   
         H         H         1.0       0.34467751495978505           0.0581324949750881 0.3202103989750755 1.0000   
         H         H         1.0       0.41188097305879107           0.9782538525640839 0.3094380049934914 1.0000   
         H         H         1.0       0.38176605528001606           0.9500759306646862 0.3554204923465316 1.0000   
         C         C         1.0       0.45204335599596385           0.0204819275226098 0.27393153690742067          1.0000   
         C         C         1.0       0.4241283031139363  0.026271971641559366         0.253064174944636  1.0000   
         C         C         1.0       0.42649434641552736           0.024476101208469547         0.21477668312657505          1.0000   
         C         C         1.0       0.453915047005075   0.01109931017766197           0.19890840216888242          1.0000   
         C         C         1.0       0.4795538296175487  0.00010406695197917593       0.2189995327537416 1.0000   
         C         C         1.0       0.48046114663585215           0.008753731288969613         0.25648846885687904          1.0000   
         C         C         1.0       0.3904924392125189  0.035200394462684415         0.2703157635958947 1.0000   
         C         C         1.0       0.38760330283880307           0.07353656003741094          0.26857575811956125          1.0000   
         C         C         1.0       0.3789108123916941  0.09020892584546991           0.23740919045535783          1.0000   
         C         C         1.0       0.3776300396115094  0.12356743879112164           0.23635268879890234          1.0000   
         C         C         1.0       0.38758659399173173           0.14209608074215918          0.2664963620700827 1.0000   
         C         C         1.0       0.3970085679221216  0.12574263424893983           0.29853753314558934          1.0000   
         C         C         1.0       0.400106995242483   0.09230434146516364           0.298616293178805  1.0000   
         C         C         1.0       0.36881090947962664           0.9807854120930671 0.24000333687936826          1.0000   
         C         C         1.0       0.3438974051806301  0.9617683176037037  0.2288362774578191 1.0000   
         C         C         1.0       0.31155965601887314           0.9729472734666843 0.22833449049670929          1.0000   
         C         C         1.0       0.3062194469166042  0.006678272972654442         0.23555647689617934          1.0000   
         C         C         1.0       0.3304654805677352  0.02610046371950525           0.2486919657464063 1.0000   
         C         C         1.0       0.3625731539647513  0.01300881418552402           0.250207280290438  1.0000   
         C         C         1.0       0.28337946444555134           0.9507891270417315 0.2118414285987794 1.0000   
         C         C         1.0       0.2909643596388425  0.009560841415197308         0.11594409947124655          1.0000   
         C         C         1.0       0.31453455270522657           0.9848606649204843 0.12384268030721339          1.0000   
         C         C         1.0       0.3085920384666748  0.9638079451854228  0.15163190602813068          1.0000   
         C         C         1.0       0.27977844480088904           0.9653648094922495 0.17176704188226966          1.0000   
         C         C         1.0       0.2555792879514924  0.9856150710549008  0.1582612967984139 1.0000   
         C         C         1.0       0.2590612117213226  0.005985719909687326         0.12938409584052854          1.0000   
         C         C         1.0       0.25005801454407595           0.9541384915687405 0.2330057738930818 1.0000   
         C         C         1.0       0.24560504258384824           0.9686942790776114 0.266913557494106  1.0000   
         C         C         1.0       0.2158360154022933  0.9684219209381313  0.28419226579649   1.0000   
         C         C         1.0       0.19214193806310514           0.9487138203762873 0.27254564738561265          1.0000   
         C         C         1.0       0.19622921652262712           0.9330658050454167 0.23982503610919184          1.0000   
         C         C         1.0       0.2228748211219116  0.9365122669340661  0.2179690309649316 1.0000   
         C         C         1.0       0.2995667160613773  0.8940752104968364  0.18546449718618044          1.0000   
         C         C         1.0       0.30794627012533804           0.8622137332775762 0.19001176211407234          1.0000   
         C         C         1.0       0.31012491734339487           0.8486314168272803 0.22514378532532717          1.0000   
         C         C         1.0       0.30602977383041174           0.86908434882032   0.25576204531774216          1.0000   
         C         C         1.0       0.2967008152820088  0.9000369498616756  0.25145967630687316          1.0000   
         C         C         1.0       0.29251036402734043           0.9146398126090255 0.21593398845671224          1.0000   
         H         H         1.0       0.45384239942912574           0.025434656209576634         0.30484823135256767          1.0000   
         H         H         1.0       0.40707516193189663           0.029255351036192367         0.19790282964995554          1.0000   
         H         H         1.0       0.4531936790446835  0.00899707042177833           0.1695015073359609 1.0000   
         H         H         1.0       0.5030892071987205  0.0064877616620935274        0.2725103063219365 1.0000   
         H         H         1.0       0.37088565180413735           0.07831544544051994          0.21312458291871914          1.0000   
         H         H         1.0       0.3647160550882718  0.13528151956937307           0.21306635997387566          1.0000   
         H         H         1.0       0.4052158923893267  0.14055432697363446           0.3236029530743332 1.0000   
         H         H         1.0       0.4083525326398958  0.08227854932792256           0.32512298749749047          1.0000   
         H         H         1.0       0.39236366942804685           0.9683497992338956 0.2435460985415937 1.0000   
         H         H         1.0       0.34866418871128557           0.9361859639245839 0.22017209617577765          1.0000   
         H         H         1.0       0.28315292071975806           0.018614010701061945         0.2328329476190842 1.0000   
         H         H         1.0       0.32430499737782303           0.052165583837086915         0.2554223306552409 1.0000   
         H         H         1.0       0.3395719009904109  0.9877888842001119  0.11156114324588529          1.0000   
         H         H         1.0       0.32945560293788567           0.9516144560094569 0.1630700034376647 1.0000   
         H         H         1.0       0.23472172044172332           0.9913312719203045 0.1734464184147455 1.0000   
         H         H         1.0       0.2408312081183888  0.02341384077039277           0.12205449276051912          1.0000   
         H         H         1.0       0.26357944773983927           0.9829858783406685 0.2820462686930275 1.0000   
         H         H         1.0       0.21193219993932946           0.9815453548654391 0.3083727957308849 1.0000   
         H         H         1.0       0.17664408479758825           0.9190530637816072 0.2317208373071085 1.0000   
         H         H         1.0       0.2244565950523583  0.9244523217749403  0.19166396813502953          1.0000   
         H         H         1.0       0.2996076860407949  0.9021906425408295  0.15824667819085242          1.0000   
         H         H         1.0       0.314914676248109   0.8488152845669875  0.16537042896196164          1.0000   
         H         H         1.0       0.3071884633784096  0.8605835351198801  0.2843853674176587 1.0000   
         H         H         1.0       0.2902740326020131  0.9149247836384617  0.27260382995549876          1.0000   
         C         C         1.0       0.5065275471454108  0.9835030216515939  0.19920085064292323          1.0000   
         C         C         1.0       0.5148387987828668  0.9481405393337838  0.21411874771449182          1.0000   
         H         H         1.0       0.505382341964828   0.9838663602630178  0.16817572743942247          1.0000   
         H         H         1.0       0.5263309925949143  0.0016989791363068996        0.2051397437669094 1.0000   
         H         H         1.0       0.5267901094645715  0.934092523154704   0.19251400101851554          1.0000   
         H         H         1.0       0.49352021074009284           0.9348137452858497 0.22482262792933247          1.0000   
         C         C         1.0       0.3168823991085071  0.7568839656846571  0.5212215589048318 1.0000   
         C         C         1.0       0.32278105774206717           0.7199522736127315 0.5054556898276295 1.0000   
         H         H         1.0       0.290024414492484   0.7577085296363564  0.5284269232066812 1.0000   
         H         H         1.0       0.32085816828490626           0.7715816066167327 0.4966153818750545 1.0000   
         H         H         1.0       0.3094372377493888  0.7175696748309047  0.4797577711083736 1.0000   
         H         H         1.0       0.30663160991482896           0.7048128704006895 0.5207665236793012 1.0000   
         C         C         1.0       0.3146696463527112  0.06745267943702826           0.10825696616816478          1.0000   
         C         C         1.0       0.2972491131250828  0.0387279171013879  0.08977473354385457          1.0000   
         H         H         1.0       0.3401876043081865  0.06945654659422962           0.09830720031191187          1.0000   
         H         H         1.0       0.3190913516992583  0.0673802194027644  0.13846955316166892          1.0000   
         H         H         1.0       0.3110490152950751  0.03300699024835163           0.06449611165747382          1.0000   
         H         H         1.0       0.272715936531069   0.04647574268231969           0.07711303484883136          1.0000   
         C         C         1.0       0.18983067905930123           0.7071711279558428 0.7752041932720029 1.0000   
         C         C         1.0       0.18243279447065489           0.6773810826281335 0.8000521139750465 1.0000   
         H         H         1.0       0.16849153295233804           0.7257438857331914 0.7743197059543427 1.0000   
         H         H         1.0       0.1825905842985937  0.6973239358330714  0.7484601159573543 1.0000   
         H         H         1.0       0.20286014088796103           0.6608149508128275 0.8020508779416807 1.0000   
         H         H         1.0       0.1636198801683857  0.6632978610634833  0.7840525078363929 1.0000   
         C         C         1.0       0.3452087439929834  0.7948600506129602  0.23773138091826787          1.0000   
         C         C         1.0       0.31170808195264266           0.8104313679141986 0.2302178766651709 1.0000   
         H         H         1.0       0.36639553226337246           0.812322614330353  0.23763160686842894          1.0000   
         H         H         1.0       0.3441124101812872  0.7795227718113701  0.26391534259635413          1.0000   
         H         H         1.0       0.29685495205558815           0.7982995844691168 0.2073152577441069 1.0000   
         H         H         1.0       0.2980879829929361  0.802928075791726   0.2538131735714932 1.0000   
         C         C         1.0       0.3472952000505308  0.8789075961590227  0.8775883057331869 1.0000   
         C         C         1.0       0.3473087497718667  0.8748056476978774  0.9188492002958415 1.0000   
         H         H         1.0       0.371334998129245   0.8870671626301534  0.868598588662464  1.0000   
         H         H         1.0       0.3325948185266428  0.8992599709324884  0.8679941558684775 1.0000   
         H         H         1.0       0.3210720597949098  0.8689266677404902  0.9234976557783355 1.0000   
         H         H         1.0       0.35010158734359165           0.8978725533310136 0.9338579119136428 1.0000   
         C         C         1.0       0.2970842455693462  0.5763473142879499  0.11697763351645185          1.0000   
         C         C         1.0       0.320663345998337   0.5872468492804304  0.08598974658160596          1.0000   
         H         H         1.0       0.3073467614843882  0.5828243942927175  0.14497824398735037          1.0000   
         H         H         1.0       0.2911752695447012  0.5498543450986462  0.1158052417403159 1.0000   
         H         H         1.0       0.3079887092793032  0.5862433902228609  0.058565966395638824         1.0000   
         H         H         1.0       0.3404535058070794  0.5685976867615788  0.07988502820537911          1.0000   
         C         C         1.0       0.5732582797306592  0.7673761948171672  0.9466198477487006 1.0000   
         C         C         1.0       0.5925325433297114  0.7996356742978699  0.9451755519665848 1.0000   
         H         H         1.0       0.5832484673575544  0.7479614591891939  0.9664069901468421 1.0000   
         H         H         1.0       0.5690355340933587  0.7532614383606019  0.9195666059223639 1.0000   
         H         H         1.0       0.5854943908008466  0.8164231599762076  0.9669084156013713 1.0000   
         H         H         1.0       0.585517960871472   0.8123960712563534  0.9203973450007469 1.0000   
         C         C         1.0       0.21954920544143144           0.5494217187868734 0.3139450948051289 1.0000   
         C         C         1.0       0.5808510442620304  0.8010093507380341  0.3235305869152738 1.0000   
         H         H         1.0       0.5665288155311103  0.1410252259615905  0.3709385855381633 1.0000   
         H         H         1.0       0.23214042991376518           0.003518457799750241         0.4015520624954921 1.0000   
         H         H         1.0       0.5859809724548741  0.8015638548177597  0.2936176374712893 1.0000   
         H         H         1.0       0.5627124859216249  0.8212398542939774  0.32546389268041026          1.0000   
         C         C         1.0       0.5179404853045596  0.6235026858808581  0.21073715477670302          1.0000   
         C         C         1.0       0.5097818734124687  0.6275945574273873  0.16881925964686978          1.0000   
         H         H         1.0       0.49805589915038234           0.6266916008169157 0.22978614169795983          1.0000   
         H         H         1.0       0.522580338578064   0.596483166398117   0.211200409388893  1.0000   
         H         H         1.0       0.5041076621239814  0.6023334298558224  0.1589352998807329 1.0000   
         H         H         1.0       0.5317241343600798  0.6308106779225325  0.15266913301068877          1.0000   
         C         C         1.0       0.1748446303642398  0.9159070410472889  0.3278741305816827 1.0000   
         C         C         1.0       0.16427095158141605           0.9401687061942953 0.2974467461660237 1.0000   
         H         H         1.0       0.15543785376579095           0.9195568863524736 0.3493282336000521 1.0000   
         H         H         1.0       0.19453367389627865           0.9260044787915387 0.34344749218866744          1.0000   
         H         H         1.0       0.14477679234996602           0.9279170148474344 0.28098369741092777          1.0000   
         H         H         1.0       0.1507995751708854  0.9616908983478262  0.3105264580941033 1.0000   
         C         C         1.0       0.3809915498544513  0.1781112672437739  0.2686136734981204 1.0000   
         C         C         1.0       0.3752987796530908  0.6262205993639532  0.34815703841712814          1.0000   
         H         H         1.0       0.39509311315850987           0.18712980505289578          0.2926939248030448 1.0000   
         H         H         1.0       0.3959501170506866  0.5858430180466812  0.36931706708353557          1.0000   
         H         H         1.0       0.384567865695592   0.6229102433139293  0.32077604369263213          1.0000   
         H         H         1.0       0.39395617775118835           0.6387243941413572 0.366258078024851  1.0000   
         C         C         1.0       0.24246890472409544           0.7965511109850607 0.08271684244512434          1.0000   
         C         C         1.0       0.26428035942564615           0.8038632900871447 0.11742576769719815          1.0000   
         H         H         1.0       0.6440830939246676  0.6602973343548701  0.026245556337142206         1.0000   
         H         H         1.0       0.6722372582561201  0.6285555378247556  0.012618994756223412         1.0000   
         H         H         1.0       0.6905669367270364  0.6100757184185895  0.06976461239353249          1.0000   
         H         H         1.0       0.28516640025130646           0.7889940607375805 0.1113150261903284 1.0000   
         C         C         1.0       0.38837884450386595           0.9480280520423864 0.6824749042706357 1.0000   
         C         C         1.0       0.39110604450555464           0.9660491181914741 0.6455345505079008 1.0000   
         H         H         1.0       0.366449534194619   0.9547206201762223  0.6985364628614983 1.0000   
         H         H         1.0       0.4119059922777371  0.9547956047663589  0.6995832605245579 1.0000   
         H         H         1.0       0.4064581809989801  0.9534994008204405  0.6274182904219137 1.0000   
         H         H         1.0       0.4001439789773852  0.9911135077264653  0.6521150226338575 1.0000   
         C         C         1.0       0.17726377121645184           0.7526521423333551 0.50211191231696   1.0000   
         C         C         1.0       0.20605811769912621           0.7272830230225203 0.5029127824856383 1.0000   
         H         H         1.0       0.1672566618612811  0.7526112078259294  0.5301607451393885 1.0000   
         H         H         1.0       0.1560657035288565  0.7441412241378185  0.4857837543757383 1.0000   
         H         H         1.0       0.1950650883965192  0.7045086397646749  0.5154019908826771 1.0000   
         H         H         1.0       0.22766310582676227           0.7336515670356097 0.5205417913120064 1.0000   
         C         C         1.0       0.6994588483743077  0.8713638107468981  0.36901293928764894          1.0000   
         C         C         1.0       0.69676391373908    0.9055377374971261  0.3903463353362407 1.0000   
         H         H         1.0       0.05998422516815127           0.8654163967751539 0.4668176660700904 1.0000   
         H         H         1.0       0.6986861017594228  0.8765504363401132  0.3411147468953365 1.0000   
         H         H         1.0       0.7182244599106179  0.9201068113192832  0.3887393867371555 1.0000   
         H         H         1.0       0.6926723510991556  0.9014966807880415  0.4196039231997651 1.0000   
         C         C         1.0       0.3394191008812915  0.09005723635594376           0.4643806823713654 1.0000   
         C         C         1.0       0.3608190417465192  0.08062599392622549           0.43090291124857716          1.0000   
         H         H         1.0       0.32202872578600267           0.10834147741494382          0.45470402145663374          1.0000   
         H         H         1.0       0.35455792383684354           0.10267202016727439          0.4840266147961324 1.0000   
         H         H         1.0       0.367749605211429   0.10486042947123564           0.4179734728585747 1.0000   
         H         H         1.0       0.3458959941939414  0.06929134112172353           0.40831808559418253          1.0000   
         C         C         1.0       0.3305695873082679  0.968343648498996   0.38978987417726296          1.0000   
         C         C         1.0       0.31712873738938196           0.93674898392145   0.3745708195916562 1.0000   
         H         H         1.0       0.3459079453273727  0.9670287956664454  0.4151709514925113 1.0000   
         H         H         1.0       0.3070155384645651  0.9834817744451243  0.39558173788471757          1.0000   
         H         H         1.0       0.3378537813805925  0.9194730634337317  0.3738779292025299 1.0000   
         H         H         1.0       0.3109368536390213  0.9411265735912898  0.34366007371984725          1.0000   
         C         C         1.0       0.6394593202986462  0.9462929134733251  0.9949571182580836 1.0000   
         C         C         1.0       0.6299773320051562  0.9711035273083756  0.02432616047804448          1.0000   
         H         H         1.0       0.08243269235628481           0.0523079553678345 0.9473786151746021 1.0000   
         H         H         1.0       0.08968595556734081           0.0608261029333792 0.9023691647251532 1.0000   
         H         H         1.0       0.6056472335601146  0.9621817618493494  0.03637583969925595          1.0000   
         H         H         1.0       0.647941119389972   0.9712483759744966  0.04703139873106621          1.0000   
         C         C         1.0       0.47349873367146367           0.9390527141791487 0.6144565020193897 1.0000   
         C         C         1.0       0.5011387816710405  0.9385312709374426  0.5853850296296896 1.0000   
         H         H         1.0       0.4501145285257823  0.9275647750450592  0.6034904647127984 1.0000   
         H         H         1.0       0.4674494567787878  0.9654344212220144  0.6229918299485526 1.0000   
         H         H         1.0       0.5003251314185174  0.9135532918068603  0.5725296959071545 1.0000   
         H         H         1.0       0.5262138653413074  0.9389257784645983  0.5984953327926664 1.0000   
         C         C         1.0       0.38195297984604154           0.6503895008487793 0.8882898405889512 1.0000   
         C         C         1.0       0.5215500134047241  0.08049033575745468           0.8170817790959467 1.0000   
         H         H         1.0       0.36347038119319036           0.6424934882369874 0.9090151957572338 1.0000   
         H         H         1.0       0.38669587084305984           0.6288024695971179 0.8710207779004278 1.0000   
         H         H         1.0       0.5376413214412568  0.09778186838035241           0.831907269533613  1.0000   
         H         H         1.0       0.5251793611679858  0.07786563605595798           0.7854981227803246 1.0000   
         C         C         1.0       0.5102318142812665  0.7378485055384352  0.7278560902374582 1.0000   
         C         C         1.0       0.5083700434627207  0.7348543974920634  0.685147868343395  1.0000   
         H         H         1.0       0.5321523577581719  0.724624086705678   0.735985957061327  1.0000   
         H         H         1.0       0.49071258603249734           0.7264675680938156 0.7442666590166743 1.0000   
         H         H         1.0       0.5079231662705149  0.7086253305660418  0.6770475709725178 1.0000   
         H         H         1.0       0.5325204469717981  0.7414281164575053  0.67503596686471   1.0000   
         C         C         1.0       0.13352639432170524           0.009004053321298722         0.6524297213638535 1.0000   
         C         C         1.0       0.1420790467781956  0.0049130181901622105        0.6114120058194619 1.0000   
         H         H         1.0       0.12854856306041812           0.03603372313698472          0.656718781491026  1.0000   
         H         H         1.0       0.157246981095846   0.00621520872034087           0.6678419980738559 1.0000   
         H         H         1.0       0.12722628751528023           0.02207174247607746          0.5954606467763112 1.0000   
         H         H         1.0       0.13335991467590178           0.9801281605775005 0.6008396821262058 1.0000   
         C         C         1.0       0.43919195834454766           0.9390687473124816 0.03294975784913645          1.0000   
         C         C         1.0       0.4241297938014253  0.9461452601708215  0.9943814882858282 1.0000   
         H         H         1.0       0.4189959958090843  0.9461542652949342  0.05190557765253079          1.0000   
         H         H         1.0       0.46124013636082606           0.9534912854069216 0.04040424957075461          1.0000   
         H         H         1.0       0.40907859528253476           0.9689498856119444 0.9944885947774204 1.0000   
         H         H         1.0       0.40614968985266986           0.9274711821102509 0.987471437740328  1.0000   
         C         C         1.0       0.9720993790602485  0.3991255837180958  0.5801597458943556 1.0000   
         C         C         1.0       0.9897756564743307  0.3801912867463633  0.60327965171885   1.0000   
         C         C         1.0       0.9990398207289308  0.39240149153713916           0.6376727752171103 1.0000   
         C         C         1.0       0.9871842764355486  0.4221965212145418  0.649232468504259  1.0000   
         C         C         1.0       0.9657665497202128  0.4400091365457637  0.6258833678263681 1.0000   
         C         C         1.0       0.957386601007737   0.42722364978984934           0.5921768918779441 1.0000   
         H         H         1.0       0.9996006476064307  0.3569625269633116  0.5910367981346375 1.0000   
         H         H         1.0       0.015341369149657558          0.37904609828283553          0.6555968233391556 1.0000   
         H         H         1.0       0.959634793150904   0.46609071567895605           0.6302574189604189 1.0000   
         H         H         1.0       0.9463499792602417  0.4426812749272693  0.571333613754807  1.0000   
         C         C         1.0       0.04576727377379708           0.4627505034411347 0.6417730484633934 1.0000   
         C         C         1.0       0.040048539777220116          0.4435572405598712 0.6717111100655112 1.0000   
         C         C         1.0       0.06691321380667992           0.42329112189216667          0.6827515927563507 1.0000   
         C         C         1.0       0.09558964548343374           0.4232922229635099 0.6634319762187265 1.0000   
         C         C         1.0       0.6407363528531722  0.5299915303100518  0.7062694821250457 1.0000   
         C         C         1.0       0.6290124914401805  0.5534771849090985  0.7288179555511327 1.0000   
         C         C         1.0       0.0031339718984073617         0.4397070531764568 0.683347966311478  1.0000   
         C         C         1.0       0.003833518894416299          0.42028230250914195          0.7215407820306089 1.0000   
         C         C         1.0       0.024362004276981652          0.43086514574882656          0.7501609800051229 1.0000   
         C         C         1.0       0.024388669200727575          0.414892345588798  0.7824804815143791 1.0000   
         C         C         1.0       0.0046294792984655775         0.38775036875128593          0.7881155438634728 1.0000   
         C         C         1.0       0.9858682600213375  0.37663179995631063           0.7600288611881155 1.0000   
         C         C         1.0       0.9844533591091764  0.3937214358823731  0.7265070080405085 1.0000   
         C         C         1.0       0.9978235605727552  0.5000346462398523  0.7005699388569151 1.0000   
         C         C         1.0       0.9826575838933458  0.522583140674184   0.7209381087574224 1.0000   
         C         C         1.0       0.9535533436971476  0.5174691321969433  0.7371631419736714 1.0000   
         C         C         1.0       0.9351597296729137  0.49022240394795663           0.7274640866647591 1.0000   
         C         C         1.0       0.9512712559812894  0.46723066560853516           0.7081525106792819 1.0000   
         C         C         1.0       0.9825418565058102  0.4705885667724646  0.6955612414035189 1.0000   
         C         C         1.0       0.9385531091319967  0.5383482974457142  0.7706643822105063 1.0000   
         C         C         1.0       0.9208986858636271  0.49249174441156574           0.8758472331923342 1.0000   
         C         C         1.0       0.9095345678021884  0.5239201510147021  0.867501356250407  1.0000   
         C         C         1.0       0.9141769424715442  0.5369359284904814  0.8335786070159386 1.0000   
         C         C         1.0       0.9309103688076399  0.5195114585606989  0.8061291161285641 1.0000   
         C         C         1.0       0.9417557259269963  0.4877722151779698  0.8136495238608454 1.0000   
         C         C         1.0       0.9347451260264251  0.4738247119203881  0.8476867205764221 1.0000   
         C         C         1.0       0.907761027369791   0.5553797574621662  0.7515102925654544 1.0000   
         C         C         1.0       0.9121534916810115  0.5835830974674463  0.7284644998190483 1.0000   
         C         C         1.0       0.8850981874558856  0.6011761788145624  0.7167088896084395 1.0000   
         C         C         1.0       0.8556274108383792  0.5954976001753562  0.7285370901288526 1.0000   
         C         C         1.0       0.8510378838872072  0.5656878387850395  0.7457619841267819 1.0000   
         C         C         1.0       0.8759148155802685  0.5449411856430425  0.7571354513044461 1.0000   
         C         C         1.0       0.9977284764110146  0.5502507073792545  0.7986142317886985 1.0000   
         C         C         1.0       0.020150729532144585          0.5719514552255612 0.8157383159322371 1.0000   
         C         C         1.0       0.0123966470134389  0.6033558666565519  0.8214952343998152 1.0000   
         C         C         1.0       0.9838852009651189  0.6158251390541973  0.81114274402083   1.0000   
         C         C         1.0       0.9610185700401283  0.5962244787687283  0.7945739876796302 1.0000   
         C         C         1.0       0.9667724649749935  0.5629584287871069  0.7860522134989765 1.0000   
         H         H         1.0       0.025113374209745576          0.47623792142553156          0.6310545150657869 1.0000   
         H         H         1.0       0.0668311254629248  0.4066574853495679  0.7045333197907996 1.0000   
         H         H         1.0       0.6343079002540944  0.48487598945825    0.6834173082323031 1.0000   
         H         H         1.0       0.6443297198054908  0.5743586489727426  0.7333372171988234 1.0000   
         H         H         1.0       0.04019805484676087           0.4530327461695069 0.752884727506434  1.0000   
         H         H         1.0       0.03616695394614089           0.42566392232887723          0.8063802188065263 1.0000   
         H         H         1.0       0.9728889315195987  0.3553056838582435  0.7639177833398957 1.0000   
         H         H         1.0       0.9670675366864008  0.384496593015607   0.7058837867643981 1.0000   
         H         H         1.0       0.022163750664189186          0.504732160995269  0.6922168900756227 1.0000   
         H         H         1.0       0.9961644205011287  0.5450418418511597  0.7224214376314015 1.0000   
         H         H         1.0       0.9110205650860812  0.48682585410594    0.7381679963079306 1.0000   
         H         H         1.0       0.9394894209394852  0.44507845991101913           0.7100906667268126 1.0000   
         H         H         1.0       0.8968965260312288  0.5374243186050189  0.8885057819657575 1.0000   
         H         H         1.0       0.9031153467819024  0.5609198723815015  0.8320931612362266 1.0000   
         H         H         1.0       0.9538868204855724  0.4744181839014224  0.7935660412053669 1.0000   
         H         H         1.0       0.9446960093558406  0.4505398436917775  0.8558590414794973 1.0000   
         H         H         1.0       0.9361214255637473  0.5897505733766176  0.7187424618995534 1.0000   
         H         H         1.0       0.8895992477569381  0.6252568190946748  0.7018768359993144 1.0000   
         H         H         1.0       0.8253778604842644  0.5591722012856123  0.7471304944126456 1.0000   
         H         H         1.0       0.8689104424662457  0.5261746629417476  0.7733126843527657 1.0000   
         H         H         1.0       0.003224406453516959          0.5247856644302371 0.7947423708689116 1.0000   
         H         H         1.0       0.04391313648594064           0.5633123684485404 0.827863706551049  1.0000   
         H         H         1.0       0.9766540185768747  0.6395802214752329  0.817803183612403  1.0000   
         H         H         1.0       0.935871225090258   0.6037602675960381  0.7915225693711013 1.0000   
         C         C         1.0       0.851269789727407   0.468929476815574   0.40727251543796167          1.0000   
         C         C         1.0       0.8388564377292853  0.4974491537832765  0.39750671357346534          1.0000   
         C         C         1.0       0.8076023481807784  0.5083743396365623  0.4094272386511239 1.0000   
         C         C         1.0       0.7881374555389927  0.4847015374198069  0.42432585203596423          1.0000   
         C         C         1.0       0.7986861561209223  0.4534445303613234  0.42675134168238327          1.0000   
         C         C         1.0       0.8305952578031173  0.44597331588804984           0.4210800252504436 1.0000   
         H         H         1.0       0.8561017260090227  0.5162041863762947  0.3896873073985136 1.0000   
         H         H         1.0       0.8028477617308151  0.5343097211088753  0.40886851824707515          1.0000   
         H         H         1.0       0.7862422425364818  0.4339135641150317  0.4418275123106141 1.0000   
         H         H         1.0       0.8399536720096742  0.4226338456366663  0.4309889195954754 1.0000   
         C         C         1.0       0.7192805583711573  0.4444169362207545  0.4167953632716117 1.0000   
         C         C         1.0       0.7275791658200205  0.46476976152128335           0.4472427326005088 1.0000   
         C         C         1.0       0.706584712019776   0.46407740175114176           0.4764463070118719 1.0000   
         C         C         1.0       0.6795987436448702  0.44541588056146486           0.47880385889687294          1.0000   
         C         C         1.0       0.6725891610504577  0.42540924426359494           0.4501615495445964 1.0000   
         C         C         1.0       0.6917135726934523  0.42421224548433767           0.41961565112374116          1.0000   
         C         C         1.0       0.7548691341113515  0.49327084341650346           0.4468277867303544 1.0000   
         C         C         1.0       0.7325005226043614  0.5208405206281563  0.42774281098866423          1.0000   
         C         C         1.0       0.7144490028319002  0.5405303818015543  0.4512173982259774 1.0000   
         C         C         1.0       0.6848591741107862  0.5547243533300112  0.4388313606506792 1.0000   
         C         C         1.0       0.6781797797349178  0.5553524558484559  0.40171425510128317          1.0000   
         C         C         1.0       0.6998735515643231  0.5397001907726459  0.37782815215694426          1.0000   
         C         C         1.0       0.725409500333981   0.5207075439337638  0.3912063404592759 1.0000   
         C         C         1.0       0.7788587623714829  0.4760052826811859  0.5094373118333534 1.0000   
         C         C         1.0       0.795852493440651   0.48029452906166187           0.541160104917405  1.0000   
         C         C         1.0       0.8044933715257705  0.5109554517245721  0.5523095174998818 1.0000   
         C         C         1.0       0.7976220086266959  0.537567244192004   0.5278153562090356 1.0000   
         C         C         1.0       0.7832285170853498  0.5317259687808119  0.49481758419167216          1.0000   
         C         C         1.0       0.7717091633327618  0.5015279729121805  0.4856035951737645 1.0000   
         C         C         1.0       0.816188092883389   0.5185672268093083  0.5933003682016832 1.0000   
         C         C         1.0       0.7179325317211421  0.5324475552516479  0.6376204944800037 1.0000   
         C         C         1.0       0.7328669655701355  0.5022671239773111  0.6394673614767356 1.0000   
         C         C         1.0       0.7638655107762939  0.4978911100458851  0.6238232361157993 1.0000   
         C         C         1.0       0.7796129721558148  0.5238910522703518  0.6083702484416804 1.0000   
         C         C         1.0       0.7648727689485691  0.5536977850498594  0.6096378924167598 1.0000   
         C         C         1.0       0.7344748762831784  0.5585907736020619  0.6237946125404219 1.0000   
         C         C         1.0       0.8419025767138777  0.5462301640991373  0.597207552386548  1.0000   
         C         C         1.0       0.8649323767287852  0.5494105681091725  0.5701227787308285 1.0000   
         C         C         1.0       0.8819662575929262  0.5777077231492953  0.5673248210281815 1.0000   
         C         C         1.0       0.8790592038837193  0.6022460828143364  0.5926452966126788 1.0000   
         C         C         1.0       0.8580156895182423  0.5974402804546625  0.6221008407576466 1.0000   
         C         C         1.0       0.8418569085210252  0.5688009210595443  0.6250548375456688 1.0000   
         C         C         1.0       0.8352084277514286  0.4854455762935125  0.6533405271108036 1.0000   
         C         C         1.0       0.8543789619566923  0.46195113948570854           0.6700894506754904 1.0000   
         C         C         1.0       0.871493294162118   0.43931524566238805           0.6496829109811609 1.0000   
         C         C         1.0       0.8719216355276335  0.44372428507568396           0.6120439338228197 1.0000   
         C         C         1.0       0.8544726884162719  0.46947688228055234           0.595627657231589  1.0000   
         C         C         1.0       0.8353467818951442  0.48984991371409026           0.6161420396396695 1.0000   
         H         H         1.0       0.7322624042337962  0.45006683589924346           0.39297200818823613          1.0000   
         H         H         1.0       0.709803123760635   0.4807537813548519  0.4993104439110153 1.0000   
         H         H         1.0       0.6653940644055452  0.44599925156031917           0.5047205343238248 1.0000   
         H         H         1.0       0.6830991353815027  0.4112514908629047  0.39376432184012883          1.0000   
         H         H         1.0       0.71794789237728    0.542471830560587   0.4809087938380616 1.0000   
         H         H         1.0       0.6693726246061577  0.5659494701700339  0.4574223645854189 1.0000   
         H         H         1.0       0.6965164142388088  0.5401255158086744  0.34819429285421016          1.0000   
         H         H         1.0       0.736791214912832   0.5039964572339741  0.3718145938642927 1.0000   
         H         H         1.0       0.7712671978499813  0.4504353332876122  0.5053449840991923 1.0000   
         H         H         1.0       0.7995371379299941  0.45851783777091476           0.555716620246303  1.0000   
         H         H         1.0       0.8025722178710892  0.5629838589348521  0.5384371099426568 1.0000   
         H         H         1.0       0.7830271199626704  0.5511408749788506  0.47681797941879267          1.0000   
         H         H         1.0       0.7206574405252466  0.4818048046196578  0.6510189423805747 1.0000   
         H         H         1.0       0.7720840742369598  0.474167857517774   0.624043051845381  1.0000   
         H         H         1.0       0.7778552414199372  0.5766454162226398  0.600885193128086  1.0000   
         H         H         1.0       0.7235431950843293  0.5826653986133147  0.6215148132593545 1.0000   
         H         H         1.0       0.8640911105522779  0.5319625626822263  0.5480799526828384 1.0000   
         H         H         1.0       0.8961461725626806  0.5802136630669951  0.5430894726799922 1.0000   
         H         H         1.0       0.8526082474637751  0.617897384563271   0.641934118341454  1.0000   
         H         H         1.0       0.8267058385032695  0.5661768807549246  0.6479479063867376 1.0000   
         H         H         1.0       0.8206604818001636  0.4996887892332342  0.6701428885844423 1.0000   
         H         H         1.0       0.8569081943038647  0.45926993785779335           0.7002015850640414 1.0000   
         H         H         1.0       0.8847629316265511  0.4257302310608464  0.5957565353403116 1.0000   
         H         H         1.0       0.8588283015919463  0.4741058781036703  0.5671257257296713 1.0000   
         C         C         1.0       0.5713616050659921  0.33200577947331095           0.13100774688253555          1.0000   
         C         C         1.0       0.5696472778806522  0.31426960721506236           0.16219829034727673          1.0000   
         C         C         1.0       0.5792805812191113  0.3266291722920763  0.19600305772102483          1.0000   
         C         C         1.0       0.5893196971701568  0.35863010388678085           0.19895860161124027          1.0000   
         C         C         1.0       0.5896136512828067  0.37671563730351604           0.16829103346900823          1.0000   
         C         C         1.0       0.5807205828300892  0.3640533703462527  0.13513788243677266          1.0000   
         H         H         1.0       0.564680562723961   0.2878614065535209  0.15937540184863422          1.0000   
         H         H         1.0       0.5815227893114666  0.3119916809578411  0.22113281552986405          1.0000   
         H         H         1.0       0.5917956526025673  0.4038544190290912  0.17026317720731668          1.0000   
         H         H         1.0       0.5811470125628471  0.3776253395694627  0.11017791273657901          1.0000   
         C         C         1.0       0.06715660595533746           0.16939858370524463          0.24867057937402476          1.0000   
         C         C         1.0       0.08424905502294222           0.19831056871293323          0.24837994544819106          1.0000   
         C         C         1.0       0.06842738730647224           0.22734534767469192          0.2591143818696574 1.0000   
         C         C         1.0       0.035957412768482744          0.22544838189939825          0.26658827120648576          1.0000   
         C         C         1.0       0.018845062740703078          0.19796107057562198          0.26008659274412915          1.0000   
         C         C         1.0       0.034640343487384095          0.16867841930933838          0.25564375326242444          1.0000   
         C         C         1.0       0.5929331880514677  0.3752227858158304  0.23968260061700725          1.0000   
         C         C         1.0       0.6231415955899984  0.39878525008587745           0.24595365320592016          1.0000   
         C         C         1.0       0.6237814958588448  0.42056100892656995           0.2748346009598783 1.0000   
         C         C         1.0       0.6503765708645297  0.43994200186512794           0.28230763889876015          1.0000   
         C         C         1.0       0.676013562638738   0.4385406400008055  0.25985125625322486          1.0000   
         C         C         1.0       0.6766204957098583  0.41646256797089626           0.23128056362963642          1.0000   
         C         C         1.0       0.6503747808240281  0.3974462058557043  0.22421957742797796          1.0000   
         C         C         1.0       0.5858198530686878  0.34204806327188064           0.3017610223729129 1.0000   
         C         C         1.0       0.5961119378235608  0.3218808233692154  0.32785442666344417          1.0000   
         C         C         1.0       0.6249856438006713  0.3041156606471733  0.32588917147557717          1.0000   
         C         C         1.0       0.6447034077842356  0.31104201018792854           0.29733442087734757          1.0000   
         C         C         1.0       0.6364998657534777  0.33362046711592264           0.2701911713011324 1.0000   
         C         C         1.0       0.6047456357566444  0.34769455895788387           0.27042600355023527          1.0000   
         C         C         1.0       0.6343298558415449  0.2769814987009303  0.3551721368813599 1.0000   
         C         C         1.0       0.6478669264678029  0.3438929964418009  0.4485230848725211 1.0000   
         C         C         1.0       0.6188665648464668  0.32727168724140476           0.44391380713394457          1.0000   
         C         C         1.0       0.6151522927017643  0.3044645506749593  0.41541800357576364          1.0000   
         C         C         1.0       0.6403903689324374  0.30026096566425    0.39140205544867285          1.0000   
         C         C         1.0       0.6674180505170894  0.3195803408889388  0.3941764327176773 1.0000   
         C         C         1.0       0.6715952209310041  0.3408144243215782  0.422767141389378  1.0000   
         C         C         1.0       0.6681142182233522  0.25552445476525837           0.3448886592878503 1.0000   
         C         C         1.0       0.6711806666419419  0.23971205922241945           0.30966329271324416          1.0000   
         C         C         1.0       0.6958246525742114  0.21693414739777556           0.3058289463679366 1.0000   
         C         C         1.0       0.7169092552393477  0.20888062181187073           0.33354999642003397          1.0000   
         C         C         1.0       0.7160967996676835  0.2265422004398754  0.3659320741236354 1.0000   
         C         C         1.0       0.6912248121528037  0.24788693741941914           0.37248414327505536          1.0000   
         C         C         1.0       0.6083458426729187  0.22843059965574425           0.3890936758286151 1.0000   
         C         C         1.0       0.5936956598386379  0.19869326751236538           0.3863417704341244 1.0000   
         C         C         1.0       0.5804971971505017  0.18851000293331624           0.3535640062732945 1.0000   
         C         C         1.0       0.5765107735507257  0.20932364319977437           0.3244891799050123 1.0000   
         C         C         1.0       0.5869781188152781  0.24087605488779518           0.32871255507651037          1.0000   
         C         C         1.0       0.609049284454906   0.2487204488169282  0.3573638394819861 1.0000   
         H         H         1.0       0.07607967769234669           0.14599521286678127          0.24055830573708453          1.0000   
         H         H         1.0       0.07686918019582656           0.25174873763200084          0.25474540070367063          1.0000   
         H         H         1.0       0.021952098627149974          0.24885454637935944          0.2699458612678857 1.0000   
         H         H         1.0       0.022718325895351832          0.14588933479297556          0.2509704065595381 1.0000   
         H         H         1.0       0.6051814400548863  0.418174315161061   0.29537771732650414          1.0000   
         H         H         1.0       0.6506282677872722  0.4527517646032338  0.30869002731208406          1.0000   
         H         H         1.0       0.6988828073095827  0.41191032127153365           0.2142337113987331 1.0000   
         H         H         1.0       0.6512370224501131  0.3802064444404338  0.2019741961465194 1.0000   
         H         H         1.0       0.1175653530968035  0.15045558335540946           0.2844837765179698 1.0000   
         H         H         1.0       0.5777832613974428  0.3181802625256615  0.35011778254131065          1.0000   
         H         H         1.0       0.6691110273135341  0.2986567532624336  0.29268150669144066          1.0000   
         H         H         1.0       0.654191161662105   0.3397075154536399  0.24995710757946246          1.0000   
         H         H         1.0       0.5978828630732237  0.33191908336987214           0.46009751931086107          1.0000   
         H         H         1.0       0.5943155347156092  0.28961149732222574           0.4120744906317945 1.0000   
         H         H         1.0       0.6847107746366482  0.31792185908456927           0.3726288624544173 1.0000   
         H         H         1.0       0.6922170657213975  0.356487967930572   0.42752472099852923          1.0000   
         H         H         1.0       0.6547963216226637  0.2422421528028128  0.28744587936170957          1.0000   
         H         H         1.0       0.6971804876599609  0.20384851913960167           0.28163563126745444          1.0000   
         H         H         1.0       0.7331660087344543  0.22264403042948913           0.38884304010269455          1.0000   
         H         H         1.0       0.6887618526934398  0.2569915974075197  0.40017754202288885          1.0000   
         H         H         1.0       0.624640839135299   0.23088173612305815           0.4121494258097881 1.0000   
         H         H         1.0       0.5962369739305562  0.17930177616559378           0.4070466067663733 1.0000   
         H         H         1.0       0.5617947574339486  0.20219519043001816           0.2979775058827328 1.0000   
         H         H         1.0       0.5861982563863823  0.2529604205416576  0.3031991223982266 1.0000   
         C         C         1.0       0.8494183694120128  0.34182952767862823           0.9429219064014643 1.0000   
         C         C         1.0       0.8736375658835025  0.3400436544148682  0.9181862175719591 1.0000   
         C         C         1.0       0.9054603238489578  0.33430497642220525           0.9288333650171705 1.0000   
         C         C         1.0       0.915004403093838   0.3328355959877245  0.965120463182202  1.0000   
         C         C         1.0       0.8908996790030346  0.3375438731177522  0.9916756251510316 1.0000   
         C         C         1.0       0.8579060022046945  0.3412556529813267  0.9799752645733012 1.0000   
         H         H         1.0       0.8660282469115741  0.3420959830558854  0.8884757036149554 1.0000   
         H         H         1.0       0.9253979591366093  0.3351604164721276  0.9114029310482135 1.0000   
         H         H         1.0       0.8974896256209115  0.34088668242926    0.02112869967076958          1.0000   
         H         H         1.0       0.8402120930649397  0.34483475072908987           0.003039158033460554         1.0000   
         C         C         1.0       0.9492681147811306  0.3954381057291866  0.995293443473373  1.0000   
         C         C         1.0       0.9586170585298938  0.37039639331068797           0.9715756890037223 1.0000   
         C         C         1.0       0.9684925438290702  0.3803198883264214  0.9369961791225058 1.0000   
         C         C         1.0       0.9680868418240703  0.41303297056855526           0.9271288941760776 1.0000   
         C         C         1.0       0.9574459138250068  0.4362340280222149  0.9495511116702936 1.0000   
         C         C         1.0       0.947825182066701   0.4281970858593255  0.9848025407753287 1.0000   
         C         C         1.0       0.9516074848551324  0.33155148391118494           0.9788736713512763 1.0000   
         C         C         1.0       0.9752705435284629  0.3091304276400276  0.9569739500096305 1.0000   
         C         C         1.0       0.00800568249849154           0.31798784011854186          0.9542713423576601 1.0000   
         C         C         1.0       0.02793033897788666           0.3004168431573436 0.9322339247071945 1.0000   
         C         C         1.0       0.015801732424451265          0.27493757792080015          0.9108634779121747 1.0000   
         C         C         1.0       0.9843733256694593  0.26416187313766504           0.9159788659376413 1.0000   
         C         C         1.0       0.9649285684253974  0.28080843083306567           0.9402156590898968 1.0000   
         C         C         1.0       0.9693950009603912  0.33294858650692005           0.04756371809513471          1.0000   
         C         C         1.0       0.9646328653712736  0.3272013941573465  0.0821275701354649 1.0000   
         C         C         1.0       0.9410236326945883  0.3037967138427826  0.09248728613212043          1.0000   
         C         C         1.0       0.9315712357875615  0.280864446900271   0.06610321712694178          1.0000   
         C         C         1.0       0.9389068680007183  0.2853731119850795  0.029382137379688755         1.0000   
         C         C         1.0       0.9548135097990924  0.31496226144579254           0.01909210527645122          1.0000   
         C         C         1.0       0.926159480269432   0.3082751436277959  0.1316144205787706 1.0000   
         C         C         1.0       0.9632354155352935  0.2202636306357932  0.18612991494479117          1.0000   
         C         C         1.0       0.9819059458054684  0.24845268068723364           0.186161739944507  1.0000   
         C         C         1.0       0.9720398782652484  0.27455306324773276           0.16588706554755   1.0000   
         C         C         1.0       0.9416947062187158  0.2758971082662731  0.14972400086270765          1.0000   
         C         C         1.0       0.9231143764041703  0.24746032474741392           0.152324714435782  1.0000   
         C         C         1.0       0.9356749593963679  0.21812224180341463           0.16496258034959638          1.0000   
         C         C         1.0       0.8876117977722147  0.3118583034282566  0.13049884045479754          1.0000   
         C         C         1.0       0.8747958745370105  0.32999065086588436           0.10145293892654927          1.0000   
         C         C         1.0       0.8430622487683529  0.33012483693073064           0.09242376694846777          1.0000   
         C         C         1.0       0.8199767541358375  0.3158451198527151  0.11511849539526553          1.0000   
         C         C         1.0       0.8317481265689848  0.30269174120362985           0.14661847266835318          1.0000   
         C         C         1.0       0.8641098401115209  0.2998214398638475  0.15421648399348464          1.0000   
         C         C         1.0       0.9313093542609777  0.3383870793256245  0.19563664890112908          1.0000   
         C         C         1.0       0.929074762291586   0.36545885885898144           0.21733782683969835          1.0000   
         C         C         1.0       0.9329089754239782  0.39566996986827974           0.20143229425859283          1.0000   
         C         C         1.0       0.9371028991773181  0.3990148533988491  0.16358437198693276          1.0000   
         C         C         1.0       0.9358583577995025  0.370794493594935   0.14206081931405312          1.0000   
         C         C         1.0       0.9328138000127179  0.3405025356209889  0.15742562279906025          1.0000   
         H         H         1.0       0.9382437664048032  0.3873763989411079  0.020521996700993528         1.0000   
         H         H         1.0       0.9713574740148149  0.3639703179995444  0.9128101049967302 1.0000   
         H         H         1.0       0.9723379458398096  0.41698242600962304           0.8986174814736464 1.0000   
         H         H         1.0       0.9369605447639179  0.4466859449438953  0.003886695197956147         1.0000   
         H         H         1.0       0.019294390236598513          0.33680863065559363          0.9701900213978659 1.0000   
         H         H         1.0       0.052354866675504264          0.3081789244703331 0.9308864158077024 1.0000   
         H         H         1.0       0.9767631055921218  0.2420137319099496  0.9015445620699877 1.0000   
         H         H         1.0       0.9399872161497526  0.2714409546284396  0.9438716680551756 1.0000   
         H         H         1.0       0.9870291401399882  0.3532612445948602  0.04236352923581599          1.0000   
         H         H         1.0       0.9771602226826929  0.342377501218218   0.10094553750943902          1.0000   
         H         H         1.0       0.9136873715256641  0.2617365009373501  0.07193739377496966          1.0000   
         H         H         1.0       0.9289168313761453  0.2679020367837176  0.011320511664620891         1.0000   
         H         H         1.0       0.004479903066983759          0.25146179166638155          0.2006964122078652 1.0000   
         H         H         1.0       0.9884435315621328  0.29526762541233226           0.16428777727421412          1.0000   
         H         H         1.0       0.9004252977171177  0.24757222252193578           0.1380429638420433 1.0000   
         H         H         1.0       0.9222124602781833  0.19714884998445625           0.16259285934237383          1.0000   
         H         H         1.0       0.8897925605883741  0.34322141904863834           0.08202844692339939          1.0000   
         H         H         1.0       0.8362444978296016  0.34318139491652955           0.06708428834849944          1.0000   
         H         H         1.0       0.8150541006401586  0.2893241211446429  0.16446015873315395          1.0000   
         H         H         1.0       0.8737920706330514  0.2849428375711193  0.17623264710476294          1.0000   
         H         H         1.0       0.9268344665578919  0.3149349871068437  0.21021458545024452          1.0000   
         H         H         1.0       0.9264556215051049  0.3641805691035981  0.24725240516927377          1.0000   
         H         H         1.0       0.9374527628118973  0.4215294845428078  0.15076338151721203          1.0000   
         H         H         1.0       0.9321648077514729  0.37553690416545255           0.11258598242864126          1.0000   
         C         C         1.0       0.5760254540343505  0.26192334367925924           0.08515905423522718          1.0000   
         C         C         1.0       0.6025668146046992  0.2687580164159617  0.06376557713722031          1.0000   
         C         C         1.0       0.6302010227179291  0.24897265467244942           0.0652696711200853 1.0000   
         C         C         1.0       0.6321759980836602  0.2241095978020797  0.08945390849056367          1.0000   
         C         C         1.0       0.6037349353524512  0.21557392337672895           0.10776149197948492          1.0000   
         C         C         1.0       0.5760974643545952  0.23356746983210447           0.10649301938838707          1.0000   
         H         H         1.0       0.6016093817171011  0.2894199235929691  0.045127664425975045         1.0000   
         H         H         1.0       0.6513271104766764  0.258478335881576   0.0513206543260083 1.0000   
         H         H         1.0       0.6030530887938719  0.19330453005476064           0.12139251982291999          1.0000   
         H         H         1.0       0.5526616970039716  0.2297335209778409  0.12092750284590514          1.0000   
         C         C         1.0       0.6635340889373981  0.19502961697336038           0.1646920524554707 1.0000   
         C         C         1.0       0.6728742741140613  0.18284633629573116           0.13091973351709707          1.0000   
         C         C         1.0       0.6934817553476817  0.15622301785665071           0.1309633245580244 1.0000   
         C         C         1.0       0.8583228894861754  0.7090915194536045  0.1103738281635609 1.0000   
         C         C         1.0       0.8551884844865149  0.6830130376174148  0.13294005581106405          1.0000   
         C         C         1.0       0.8245965146211917  0.6711316675971185  0.13918018348618671          1.0000   
         C         C         1.0       0.6628304904089701  0.20125386171276927           0.09441823846403796          1.0000   
         C         C         1.0       0.6954994921962335  0.22244831371959267           0.08949347797435436          1.0000   
         C         C         1.0       0.7217225538466249  0.2127407824244454  0.06790300479666711          1.0000   
         C         C         1.0       0.748729017499587   0.2334596340624044  0.06434798076551784          1.0000   
         C         C         1.0       0.7469671407410128  0.26385005701304054           0.07980199265490473          1.0000   
         C         C         1.0       0.7207654333962907  0.2737728565026397  0.10103801188319217          1.0000   
         C         C         1.0       0.6973706904158731  0.2512991578002234  0.10709888371270271          1.0000   
         C         C         1.0       0.641323300050218   0.14475880495543603           0.06878392126342758          1.0000   
         C         C         1.0       0.6325874389038022  0.12216563950994687           0.04194281195375549          1.0000   
         C         C         1.0       0.6340243305835555  0.1308242228960857  0.0051499135890880066        1.0000   
         C         C         1.0       0.6448966694907592  0.16142698050442184           0.9979108409509533 1.0000   
         C         C         1.0       0.656068805140888   0.18183390114376022           0.024674897119978167         1.0000   
         C         C         1.0       0.6535948157830344  0.17471356617891312           0.061784262301891824         1.0000   
         C         C         1.0       0.6180535237824868  0.10793328776707113           0.9744564514519668 1.0000   
         C         C         1.0       0.6620156095228942  0.1138384100241443  0.8645741279730905 1.0000   
         C         C         1.0       0.68150344921037    0.11841318156061063           0.8948327854610117 1.0000   
         C         C         1.0       0.6681614457079141  0.11685695281273413           0.9296843620115853 1.0000   
         C         C         1.0       0.6368520867723131  0.10853369772423616           0.9352687657700729 1.0000   
         C         C         1.0       0.6188010423702043  0.09909496995833789           0.904530367041364  1.0000   
         C         C         1.0       0.6323462362593799  0.09990163426729737           0.8690304680877482 1.0000   
         C         C         1.0       0.5824039405815223  0.12437411061804073           0.9727964975898831 1.0000   
         C         C         1.0       0.5781755072197183  0.15200244273804084           0.9499423074811879 1.0000   
         C         C         1.0       0.5495706808739056  0.1697522230060231  0.95007599760782   1.0000   
         C         C         1.0       0.5256168791399003  0.1615394023167     0.9749422986717536 1.0000   
         C         C         1.0       0.530944023669693   0.13759750767795667           0.0010556433160249235        1.0000   
         C         C         1.0       0.5591129005184077  0.1191402977724676  0.0005252383905731683        1.0000   
         C         C         1.0       0.6500948619408965  0.05698810653508724           0.994042423069823  1.0000   
         C         C         1.0       0.6550332099472365  0.02456093915213642           0.003350815840291954         1.0000   
         C         C         1.0       0.6274860764870771  0.005077346457611931         0.006441479372062409         1.0000   
         C         C         1.0       0.5980230953285357  0.016359495419201897         0.9915880469539933 1.0000   
         C         C         1.0       0.5948154000969322  0.04824451786346762           0.9802501707284911 1.0000   
         C         C         1.0       0.6196439941841695  0.07055391004246991           0.9822610828365816 1.0000   
         H         H         1.0       0.6495189893184271  0.21965821351322928           0.16529963982953222          1.0000   
         H         H         1.0       0.7053108552284817  0.147642656108506   0.10421173276300788          1.0000   
         H         H         1.0       0.8825306215767997  0.715084616945593   0.09828091115995319          1.0000   
         H         H         1.0       0.8182630648576641  0.653692465112882   0.15905267732541994          1.0000   
         H         H         1.0       0.7211632230095207  0.19070719480611603           0.052402322330707296         1.0000   
         H         H         1.0       0.7685656026212196  0.22507122353799466           0.04841997394553177          1.0000   
         H         H         1.0       0.7197136548611689  0.29840747869430373           0.1112634243986244 1.0000   
         H         H         1.0       0.6787340773447074  0.2588367634270306  0.12554005516008898          1.0000   
         H         H         1.0       0.6357846695443677  0.13733420425884438           0.0957315196336006 1.0000   
         H         H         1.0       0.6217422544226735  0.09944844234534411           0.05102627660921577          1.0000   
         H         H         1.0       0.6472058538158054  0.17080879559963266           0.9687387924963854 1.0000   
         H         H         1.0       0.6625052831770777  0.20729395067435868           0.016158386880975817         1.0000   
         H         H         1.0       0.706103891420928   0.12829365383386945           0.8918645988935374 1.0000   
         H         H         1.0       0.6854104188371714  0.12168251469969486           0.9533418367035368 1.0000   
         H         H         1.0       0.5937100339643236  0.09046580727778686           0.9093399921452472 1.0000   
         H         H         1.0       0.6155543582294715  0.09441743588245965           0.8455657360324258 1.0000   
         H         H         1.0       0.5973200747040214  0.16037927815137734           0.9311943983676069 1.0000   
         H         H         1.0       0.544155212558422   0.19008532292049854           0.9312284248591732 1.0000   
         H         H         1.0       0.5107890873238791  0.13263888514138383           0.02014878329270897          1.0000   
         H         H         1.0       0.562743449095631   0.10139400054595993           0.022160681479474365         1.0000   
         H         H         1.0       0.6713951807824492  0.07148160246641333           0.9959755383878616 1.0000   
         H         H         1.0       0.6779566927527607  0.013313399491428735         0.011372163647047406         1.0000   
         H         H         1.0       0.5765311237023674  0.0013086266239508149        0.9873421759841123 1.0000   
         H         H         1.0       0.5727109149040034  0.056311529963749773         0.966599639180358  1.0000   
         C         C         1.0       0.8039805407317937  0.2815964007721535  0.910518420913259  1.0000   
         C         C         1.0       0.8219652467889348  0.2554679262081062  0.9257231108216745 1.0000   
         C         C         1.0       0.8273621458495944  0.22795885159348733           0.9034344266302041 1.0000   
         C         C         1.0       0.813163594925089   0.2262743782126716  0.8687578180247558 1.0000   
         C         C         1.0       0.7949952756467153  0.2538545976057811  0.8550219660632159 1.0000   
         C         C         1.0       0.7908762227140985  0.28029144132138134           0.8759192477430194 1.0000   
         H         H         1.0       0.8313446860166533  0.2562615260265111  0.9547255563200342 1.0000   
         H         H         1.0       0.8396758510804754  0.2064760324260622  0.9152208658487051 1.0000   
         H         H         1.0       0.7888798289248805  0.25454251884692514           0.8269135588199306 1.0000   
         H         H         1.0       0.7777782048829308  0.3005488946193601  0.8633140390039435 1.0000   
         C         C         1.0       0.7558338472642091  0.18955407182045933           0.8412096675324242 1.0000   
         C         C         1.0       0.7854330686468094  0.18354512598170977           0.8244961300827139 1.0000   
         C         C         1.0       0.7852840411029243  0.16092553644175756           0.7961639515569368 1.0000   
         C         C         1.0       0.7582572345147871  0.14263631170883478           0.7899120612384645 1.0000   
         C         C         1.0       0.7310486396792335  0.14348555109221472           0.8134550200863379 1.0000   
         C         C         1.0       0.7294857161771806  0.16912031398127134           0.8374349543000137 1.0000   
         C         C         1.0       0.8194292877751274  0.19616718345059775           0.8419764768819344 1.0000   
         C         C         1.0       0.8309290340462188  0.16232021800405178           0.8614516836399534 1.0000   
         C         C         1.0       0.8507682763091753  0.139218331100535   0.8433336996509283 1.0000   
         C         C         1.0       0.8569555515981501  0.10773895385228462           0.8561736821594949 1.0000   
         C         C         1.0       0.8446446364094239  0.09889150974898242           0.891796853509343  1.0000   
         C         C         1.0       0.8251536183216068  0.12077765187341555           0.9089310869723964 1.0000   
         C         C         1.0       0.8181549688124059  0.15133240776850104           0.8946310007059148 1.0000   
         C         C         1.0       0.8390135724125546  0.2206005725402269  0.7803569974177871 1.0000   
         C         C         1.0       0.8611084047481367  0.23822024097551175           0.761270710722673  1.0000   
         C         C         1.0       0.8933636387719326  0.24139223292944542           0.7724266652042815 1.0000   
         C         C         1.0       0.9021916675934906  0.2260797902470215  0.806080646105104  1.0000   
         C         C         1.0       0.8785219902546363  0.21148162578344795           0.8276207086593292 1.0000   
         C         C         1.0       0.8462915229082909  0.2086984242952725  0.8143784772215582 1.0000   
         C         C         1.0       0.9203547826249254  0.2610880265893489  0.7490930037673038 1.0000   
         C         C         1.0       0.9450571028767797  0.16851679356740465           0.6946510645096895 1.0000   
         C         C         1.0       0.9251733664928834  0.1919194989733829  0.6769463398276995 1.0000   
         C         C         1.0       0.9184398364714096  0.2205386742740023  0.6945448933669086 1.0000   
         C         C         1.0       0.9321462975880174  0.22918802646793432           0.7276719104067049 1.0000   
         C         C         1.0       0.9550514818373333  0.20673577043551847           0.7435433419223837 1.0000   
         C         C         1.0       0.9612026747270185  0.17701389609041202           0.727253239417368  1.0000   
         C         C         1.0       0.9478268943397042  0.2781111631354081  0.774153217369647  1.0000   
         C         C         1.0       0.940407870113612   0.2907871423472533  0.8096265560743474 1.0000   
         C         C         1.0       0.9647342208960844  0.30604892817982093           0.8296486215264411 1.0000   
         C         C         1.0       0.9942138008238343  0.31161672148644537           0.8158889638247009 1.0000   
         C         C         1.0       0.003552792472938382          0.2968205068750193 0.783453538683851  1.0000   
         C         C         1.0       0.9802156962277793  0.2798961145443126  0.762675635066164  1.0000   
         C         C         1.0       0.9252624732053926  0.30121445970125216           0.6931809757995994 1.0000   
         C         C         1.0       0.9150454768479049  0.32726214885411103           0.6722847102569993 1.0000   
         C         C         1.0       0.8894551851215365  0.34700685670615994           0.6841928002944053 1.0000   
         C         C         1.0       0.8742850265989303  0.33974086579793006           0.7176764911147985 1.0000   
         C         C         1.0       0.8856778413996776  0.31386587940076155           0.7382972768419972 1.0000   
         C         C         1.0       0.9085238902918945  0.29107748198431693           0.7252551479543294 1.0000   
         H         H         1.0       0.7556484893145172  0.20601630855117692           0.8638756087768172 1.0000   
         H         H         1.0       0.8085434172330324  0.15380950920426908           0.7846394730403452 1.0000   
         H         H         1.0       0.7603882735650415  0.12406325078034626           0.7707807417144378 1.0000   
         H         H         1.0       0.7101131128385846  0.1739256076614835  0.8555967036921955 1.0000   
         H         H         1.0       0.8598310326762195  0.14408848690163356           0.8158331313495121 1.0000   
         H         H         1.0       0.8708415806504346  0.09168225118096851           0.8381399688663481 1.0000   
         H         H         1.0       0.8145324742639074  0.11342057377178617           0.9357019237863532 1.0000   
         H         H         1.0       0.7986075840709795  0.16521874233732092           0.9068529281865874 1.0000   
         H         H         1.0       0.8156837946412399  0.21824345918525037           0.7679077547863241 1.0000   
         H         H         1.0       0.8539181564500788  0.2483037107391301  0.7355325043378337 1.0000   
         H         H         1.0       0.9278370628562608  0.22834640959513805           0.8143543333522171 1.0000   
         H         H         1.0       0.8867030029252571  0.19755219868512702           0.8505861342250772 1.0000   
         H         H         1.0       0.9129068361113715  0.18354078395382317           0.6522763817445083 1.0000   
         H         H         1.0       0.9019073406245883  0.2365505760030655  0.6819736787253756 1.0000   
         H         H         1.0       0.9598154971689906  0.20949768003787972           0.7717678280033362 1.0000   
         H         H         1.0       0.9797694660363616  0.16252777280142316           0.7424774297315516 1.0000   
         H         H         1.0       0.9145425272430668  0.2942464615170389  0.8167880092555715 1.0000   
         H         H         1.0       0.960110140108458   0.31310254183253755           0.8588012897231658 1.0000   
         H         H         1.0       0.02827065936503259           0.3001952177742239 0.7710496450629237 1.0000   
         H         H         1.0       0.9882632431161417  0.26710810783484756           0.738062851394152  1.0000   
         H         H         1.0       0.9462155450069413  0.2870160955720856  0.6854355489612648 1.0000   
         H         H         1.0       0.928548984180396   0.33562746219732736           0.648462657897132  1.0000   
         H         H         1.0       0.8578848829338258  0.35663351307120533           0.7300720680553188 1.0000   
         H         H         1.0       0.8723845316290932  0.3073614567170116  0.762697141267238  1.0000   
         C         C         1.0       0.006461168196093103          0.4422899438398877 0.5195154197667994 1.0000   
         C         C         1.0       0.9819336456719131  0.4666986146535166  0.5141759125010775 1.0000   
         C         C         1.0       0.9893368270721193  0.4988783041482144  0.5182231093242231 1.0000   
         C         C         1.0       0.020378070474446286          0.5086532983209219 0.5288075949727575 1.0000   
         C         C         1.0       0.044107836559465374          0.48538781484924093          0.5351404731366902 1.0000   
         C         C         1.0       0.03646055759996347           0.4522585246622686 0.5323044840178948 1.0000   
         H         H         1.0       0.9585470830492632  0.4591960244552676  0.5052002015556801 1.0000   
         H         H         1.0       0.973385842072832   0.5167696895892373  0.5112834861412919 1.0000   
         H         H         1.0       0.06905313676852609           0.49160622253657127          0.5431546014703977 1.0000   
         H         H         1.0       0.055222723358848036          0.43443644170950707          0.5354871395453985 1.0000   
         C         C         1.0       0.06222247785415336           0.545343363848884  0.5949564319771674 1.0000   
         C         C         1.0       0.050425543871456924          0.5639249073397576 0.5650046316378262 1.0000   
         C         C         1.0       0.062387542348002256          0.5961639712434822 0.5617072363833795 1.0000   
         C         C         1.0       0.991015170039379   0.11876751338153337           0.591720081229226  1.0000   
         C         C         1.0       0.9908455720775503  0.1105289354542909  0.629171569079994  1.0000   
         C         C         1.0       0.990904829781231   0.07800256122224436           0.6381396922954865 1.0000   
         C         C         1.0       0.027187212870987132          0.547922308485454  0.5327118092181499 1.0000   
         C         C         1.0       0.9954650922353979  0.5659570552627379  0.5475165854062447 1.0000   
         C         C         1.0       0.9869315633686543  0.5972724047850553  0.5358940054363617 1.0000   
         C         C         1.0       0.9664440282275595  0.6165272067665526  0.5566100988631042 1.0000   
         C         C         1.0       0.9521870003492868  0.6047010534972561  0.5871689155916585 1.0000   
         C         C         1.0       0.9592021542796644  0.5721287941141789  0.5977684117279177 1.0000   
         C         C         1.0       0.9791948873953487  0.5520553733192767  0.5771972140752015 1.0000   
         C         C         1.0       0.07126893111261823           0.5543807104387325 0.48616306122918385          1.0000   
         C         C         1.0       0.08044997821807076           0.5556574582749274 0.45018257160019953          1.0000   
         C         C         1.0       0.05873297883734918           0.5601044174234426 0.4219092960992514 1.0000   
         C         C         1.0       0.02601489848555416           0.5614445051706951 0.429534874140628  1.0000   
         C         C         1.0       0.015003946117475797          0.5615693448623609 0.46493574536690885          1.0000   
         C         C         1.0       0.03788746769142137           0.556889851179556  0.4937216670584566 1.0000   
         C         C         1.0       0.0663771982981527  0.5612298182641989  0.3793059825198123 1.0000   
         C         C         1.0       0.0340650457515661  0.6627738348224245  0.36640067908249324          1.0000   
         C         C         1.0       0.06415799278616952           0.6548883543823357 0.38187741787141943          1.0000   
         C         C         1.0       0.07495930398737749           0.6230787916128809 0.38331483835936125          1.0000   
         C         C         1.0       0.05498889106082916           0.5976283627139846 0.3720563685796341 1.0000   
         C         C         1.0       0.025015709163485944          0.6058881971837876 0.3541853601226797 1.0000   
         C         C         1.0       0.015725906309100424          0.6378141723061803 0.3503998211702742 1.0000   
         C         C         1.0       0.048804165368868   0.5340004727404063  0.3541526359111117 1.0000   
         C         C         1.0       0.04074803485990941           0.5049763078198809 0.368735144575205  1.0000   
         C         C         1.0       0.0314128958757669  0.47896860768143706           0.34708114849924165          1.0000   
         C         C         1.0       0.03727932495699471           0.48261978798483374          0.30903114250793895          1.0000   
         C         C         1.0       0.04357155943964375           0.5112593764136129 0.2935425540318783 1.0000   
         C         C         1.0       0.04869881809650356           0.5382789557947152 0.3152170531808051 1.0000   
         C         C         1.0       0.11986027387811826           0.5696866878107063 0.34440502746650886          1.0000   
         C         C         1.0       0.1490239273214764  0.5589361646320081  0.33149534998806907          1.0000   
         C         C         1.0       0.16597023549496548           0.5334012880895739 0.34779288477417797          1.0000   
         C         C         1.0       0.15037912480890148           0.513853410512679  0.37199403333339304          1.0000   
         C         C         1.0       0.11867378931568906           0.5236065124805173 0.384153674196632  1.0000   
         C         C         1.0       0.10290573365292888           0.5521813960391563 0.3701327826800964 1.0000   
         H         H         1.0       0.05220457007645951           0.5195651867324992 0.5950841121863145 1.0000   
         H         H         1.0       0.05437491932898131           0.6133524498154679 0.5402598605371804 1.0000   
         H         H         1.0       0.9903159914513139  0.14408523029355877           0.5830409415777988 1.0000   
         H         H         1.0       0.9939794320048876  0.0694073539557325  0.666493287955111  1.0000   
         H         H         1.0       0.9982280879100766  0.6101316954778961  0.5129969483426453 1.0000   
         H         H         1.0       0.9647953443693618  0.6408506123962036  0.5485645423800312 1.0000   
         H         H         1.0       0.9507834611687733  0.5622840654392576  0.6238535936343622 1.0000   
         H         H         1.0       0.9887257502503713  0.528817244843448   0.5862533420087085 1.0000   
         H         H         1.0       0.0886576871100575  0.5505970152232822  0.5093737606745534 1.0000   
         H         H         1.0       0.10569764429664597           0.5552744336453644 0.44773610275913417          1.0000   
         H         H         1.0       0.007983837100615787          0.5647618468402117 0.4077850912069103 1.0000   
         H         H         1.0       0.9883187937697426  0.5652195519423836  0.469823098183576  1.0000   
         H         H         1.0       0.07926862309488358           0.6736202799104148 0.3959232804409334 1.0000   
         H         H         1.0       0.09792354977655249           0.6209952629434444 0.3968620256092852 1.0000   
         H         H         1.0       0.004626204387740973          0.5884828693816883 0.34913204766399414          1.0000   
         H         H         1.0       0.9915599229045559  0.6439393675901192  0.3394708350557824 1.0000   
         H         H         1.0       0.04497734670277498           0.49798763356974485          0.3967167725472035 1.0000   
         H         H         1.0       0.025293695588960885          0.45616842419092746          0.35826790730911984          1.0000   
         H         H         1.0       0.0443025270931694  0.5109939565921109  0.26357262125198794          1.0000   
         H         H         1.0       0.05757560940452966           0.5578208862983044 0.29886038816929017          1.0000   
         H         H         1.0       0.10838036139844065           0.5883408125454196 0.3291170496054717 1.0000   
         H         H         1.0       0.1589216995961984  0.5756987392444711  0.3118082181543451 1.0000   
         H         H         1.0       0.16428004737084723           0.4936424253795024 0.38593717726817717          1.0000   
         H         H         1.0       0.10411990712734576           0.5083468295600833 0.40180637443451295          1.0000   
         C         C         1.0       0.9064293335370546  0.5105104228926857  0.4528383734112676 1.0000   
         C         C         1.0       0.881558973367713   0.5292355071281825  0.4688446120190203 1.0000   
         C         C         1.0       0.8754462248478877  0.5604576591087732  0.4563652957177544 1.0000   
         C         C         1.0       0.8986302299601667  0.5764489427636353  0.43647323864407   1.0000   
         C         C         1.0       0.9268110256094492  0.559890712376025   0.4245334276499494 1.0000   
         C         C         1.0       0.9267440418476136  0.5259197939785791  0.42834372917148567          1.0000   
         H         H         1.0       0.8648684045073936  0.5163512423714294  0.48491107660843624          1.0000   
         H         H         1.0       0.8499370098743801  0.5688081462295043  0.460987411962639  1.0000   
         H         H         1.0       0.9420707150417653  0.5683977781288816  0.4027774247976277 1.0000   
         H         H         1.0       0.9422527561632413  0.5091275806961394  0.41389783957718823          1.0000   
         C         C         1.0       0.945232653151719   0.6373127263575251  0.44112219485815113          1.0000   
         C         C         1.0       0.9207072165620128  0.6357085690176304  0.41575361133951844          1.0000   
         C         C         1.0       0.921175481769727   0.657403941081117   0.3852559605620986 1.0000   
         C         C         1.0       0.9477424923928497  0.6774297924463959  0.3788841959139096 1.0000   
         C         C         1.0       0.9720383444001234  0.6781035572609386  0.40563371058569186          1.0000   
         C         C         1.0       0.9716238961787855  0.6577830962217083  0.43758434083529424          1.0000   
         C         C         1.0       0.8904960642901348  0.6115555114044571  0.41888587935411525          1.0000   
         C         C         1.0       0.8668174273046934  0.6335031256472523  0.4420789086416044 1.0000   
         C         C         1.0       0.8433926480880226  0.6549574939491286  0.4267209426542077 1.0000   
         C         C         1.0       0.8173963180735153  0.665731727619928   0.44488530504299556          1.0000   
         C         C         1.0       0.8140806536687278  0.6582867533407772  0.4818292251026804 1.0000   
         C         C         1.0       0.8397368594222381  0.6411955492331228  0.49995533632170697          1.0000   
         C         C         1.0       0.8661400591900006  0.6304564445435631  0.4794218046114996 1.0000   
         C         C         1.0       0.8960312571283304  0.5899551829324083  0.3515705371342876 1.0000   
         C         C         1.0       0.8836116277507873  0.5774480357990585  0.31983805718764347          1.0000   
         C         C         1.0       0.8510927328229757  0.5724032485178623  0.3142652271483454 1.0000   
         C         C         1.0       0.830132976705016   0.5814819137548933  0.34143831683622927          1.0000   
         C         C         1.0       0.8421387566528424  0.5934611983742321  0.37507322813046906          1.0000   
         C         C         1.0       0.8757455889710041  0.5981810888631283  0.3796545852392057 1.0000   
         C         C         1.0       0.8369968303758973  0.5561129274269562  0.2751062730852703 1.0000   
         C         C         1.0       0.8689954309470698  0.6397809410949028  0.21266636772425582          1.0000   
         C         C         1.0       0.8875775344323501  0.6115170884950809  0.2133549693018802 1.0000   
         C         C         1.0       0.8749043601160187  0.5846967412205358  0.23145416626623566          1.0000   
         C         C         1.0       0.8444816551728793  0.584533015839859   0.2473256724838216 1.0000   
         C         C         1.0       0.8267172202798361  0.6142371820499302  0.24723503257715598          1.0000   
         C         C         1.0       0.8386152439292465  0.6415829387751391  0.23018395113672224          1.0000   
         C         C         1.0       0.7995822242979046  0.5432069790884848  0.2739943051642525 1.0000   
         C         C         1.0       0.7890453282089486  0.5223600808626229  0.30109870978195746          1.0000   
         C         C         1.0       0.7587175383935808  0.507146164935152   0.29900419311740073          1.0000   
         C         C         1.0       0.7395934989809587  0.5107048708558667  0.26858791534436294          1.0000   
         C         C         1.0       0.7496115454300988  0.5311157797744769  0.24033670083816275          1.0000   
         C         C         1.0       0.7782174608743534  0.5474746659962306  0.2426511615843209 1.0000   
         C         C         1.0       0.8539904071650393  0.5107454145929923  0.22656310123177378          1.0000   
         C         C         1.0       0.8671973558229229  0.4817398373635971  0.21751787068312203          1.0000   
         C         C         1.0       0.8842403842817259  0.46392536310949317           0.24283301418414863          1.0000   
         C         C         1.0       0.8872475748425405  0.47623033916237134           0.27980319063954867          1.0000   
         C         C         1.0       0.8719273323899891  0.5048299164122008  0.2888273067070998 1.0000   
         C         C         1.0       0.8552275785207243  0.5222371437435779  0.2631053491502074 1.0000   
         H         H         1.0       0.9460226047668414  0.6210395411419593  0.4642942159587959 1.0000   
         H         H         1.0       0.9020990130525114  0.6569004685104677  0.3660168175524732 1.0000   
         H         H         1.0       0.9442021627786422  0.6965471598140224  0.3584381631316442 1.0000   
         H         H         1.0       0.9913773343992689  0.6609335177160136  0.4568602294855731 1.0000   
         H         H         1.0       0.8454040843605283  0.6593574534797418  0.39615860371160055          1.0000   
         H         H         1.0       0.798258923149643   0.677553044111862   0.4263857792974395 1.0000   
         H         H         1.0       0.8391814753188785  0.6391267777878524  0.5292355746875794 1.0000   
         H         H         1.0       0.8859736189678674  0.6165762994187522  0.49214110480341516          1.0000   
         H         H         1.0       0.9221301056491162  0.5931827131424358  0.35153936070660136          1.0000   
         H         H         1.0       0.8988250094782978  0.5671112980317138  0.2983442381084001 1.0000   
         H         H         1.0       0.8034564140234651  0.579844174120754   0.3362877319135817 1.0000   
         H         H         1.0       0.8261555291800964  0.5985913505743633  0.3981063902509206 1.0000   
         H         H         1.0       0.9119685549354639  0.6130697387352394  0.20479154939760139          1.0000   
         H         H         1.0       0.8917603161288715  0.5657505964759525  0.23811195108086666          1.0000   
         H         H         1.0       0.8035972668223454  0.6167463071492468  0.26199918174564074          1.0000   
         H         H         1.0       0.8265870309345873  0.6649919911806141  0.22826193569027695          1.0000   
         H         H         1.0       0.8051634808922966  0.5145679746682644  0.3233067172488046 1.0000   
         H         H         1.0       0.7526086411930877  0.4889613562766782  0.3204081000462683 1.0000   
         H         H         1.0       0.7348326295378821  0.5322141516918503  0.21361853103212053          1.0000   
         H         H         1.0       0.7878744881169374  0.5630977504609234  0.22154966352337055          1.0000   
         H         H         1.0       0.8424766380136266  0.5245023266773793  0.20575566789373484          1.0000   
         H         H         1.0       0.8641884378540867  0.4716514627210042  0.19077165481440392          1.0000   
         H         H         1.0       0.9023176788153048  0.4616890746989908  0.29692607587611486          1.0000   
         H         H         1.0       0.871669707829764   0.5114940219963385  0.3177010945677288 1.0000   
         C         C         1.0       0.0006336269850444332         0.7016171485257826 0.4013569685596448 1.0000   
         C         C         1.0       0.01756684339911274           0.6965122029987333 0.3647709490871505 1.0000   
         H         H         1.0       0.9880959159027483  0.7257897616275577  0.40244481368304813          1.0000   
         H         H         1.0       0.015895146576578645          0.7009898679007517 0.4276166251945232 1.0000   
         H         H         1.0       0.03527658964860403           0.7136292708211063 0.35975359952834624          1.0000   
         H         H         1.0       0.0014908078430611038         0.6988543709302122 0.3387439589192967 1.0000   
         C         C         1.0       0.9544633076608098  0.13584850650714708           0.6755236246483397 1.0000   
         C         C         1.0       0.9894804778346977  0.137098763935981   0.6597220871863463 1.0000   
         H         H         1.0       0.9514886172360568  0.11406522417130249           0.6936846260449736 1.0000   
         H         H         1.0       0.9371763348915707  0.1292537813462314  0.6541125129086967 1.0000   
         H         H         1.0       0.006958294635006856          0.1299157912399585 0.6816468940578091 1.0000   
         H         H         1.0       0.9967215716192651  0.16342258388910766           0.6535399542739694 1.0000   
         C         C         1.0       0.8833180080914388  0.6647120584296122  0.15278473522782857          1.0000   
         C         C         1.0       0.8819200825714066  0.6705242409708433  0.19374029958163105          1.0000   
         H         H         1.0       0.8859697486392221  0.6383948782382449  0.14521433520062121          1.0000   
         H         H         1.0       0.9054290526936023  0.6778199789646648  0.1441169507826283 1.0000   
         H         H         1.0       0.8672313712480116  0.6937861931201428  0.2007873852781641 1.0000   
         H         H         1.0       0.9076379645880209  0.6744202120565036  0.202926562589268  1.0000   
         C         C         1.0       0.7079913442281686  0.11263935758789745           0.814869416595143  1.0000   
         C         C         1.0       0.6716507603964293  0.12082035295263165           0.8235884910105918 1.0000   
         H         H         1.0       0.7079748540515608  0.09971403193226425           0.7884077870870686 1.0000   
         H         H         1.0       0.720255193747423   0.09514890862452341           0.8332523991082602 1.0000   
         H         H         1.0       0.6557400481286109  0.10731753427246817           0.8032048889755293 1.0000   
         H         H         1.0       0.6678303531717091  0.14860094988730493           0.8152963388024045 1.0000   
         C         C         1.0       0.9282036401019139  0.42638532272421487           0.2248008161362637 1.0000   
         C         C         1.0       0.8928462462316047  0.430875331569223   0.23126315053198754          1.0000   
         H         H         1.0       0.9396236266692892  0.44739089034366203           0.211553057480768  1.0000   
         H         H         1.0       0.941460553920018   0.42128053192043113           0.2503047571158803 1.0000   
         H         H         1.0       0.8765301797489652  0.4224475807667094  0.21033859720565473          1.0000   
         H         H         1.0       0.8865208133460903  0.4142046782304494  0.25517597812906084          1.0000   
         C         C         1.0       0.7941298491173016  0.3117945109378182  0.9340237145644098 1.0000   
         C         C         1.0       0.8129210499232608  0.34276501871856324           0.9304416801793404 1.0000   
         H         H         1.0       0.7670358806610647  0.3175926097131943  0.9293377980418985 1.0000   
         H         H         1.0       0.7931265480467646  0.3023330716576017  0.9624348765406603 1.0000   
         H         H         1.0       0.8002305997297298  0.36464716831394317           0.9421942459263823 1.0000   
         H         H         1.0       0.8129942300803786  0.3486233106421914  0.9008311943469594 1.0000   
         C         C         1.0       0.7752646298920699  0.2883611591971235  0.07431428436065723          1.0000   
         C         C         1.0       0.7841092838840311  0.3129459764317945  0.10461220492874768          1.0000   
         H         H         1.0       0.7970057045680408  0.27587305199343143           0.0684017959571126 1.0000   
         H         H         1.0       0.7703130468380193  0.3028155211154602  0.04916139110947948          1.0000   
         H         H         1.0       0.7709477941048772  0.3086041313001235  0.12918331178227516          1.0000   
         H         H         1.0       0.7732043126604955  0.33726104696342457           0.09511455542637215          1.0000   
         C         C         1.0       0.03752747202910012           0.25600035926104064          0.8844111571948908 1.0000   
         C         C         1.0       0.0707010775962762  0.2695553059602497  0.8720465137431144 1.0000   
         H         H         1.0       0.0400724914220425  0.23377423978147735           0.8969604266034132 1.0000   
         H         H         1.0       0.02178726790454255           0.24938970069348174          0.8603525539445225 1.0000   
         H         H         1.0       0.07317570487319269           0.296940347544007  0.8768929327595301 1.0000   
         H         H         1.0       0.06993673260907052           0.2699696512010798 0.841634950935497  1.0000   
         C         C         1.0       0.5748515905565759  0.15273243036805384           0.344430172435495  1.0000   
         C         C         1.0       0.18914300028497566           0.019554974191583474         0.4207750342520264 1.0000   
         H         H         1.0       0.2090118229115261  0.5465547904503258  0.28693155742589266          1.0000   
         H         H         1.0       0.621661210438098   0.8333741966980257  0.3296257112480509 1.0000   
         H         H         1.0       0.19563879022018105           0.04257712183129114          0.43729622733106743          1.0000   
         H         H         1.0       0.1952252692247738  0.002747318800482512         0.44126210276971034          1.0000   
         C         C         1.0       0.9835906679546851  0.19776192700287226           0.2502937795609903 1.0000   
         C         C         1.0       0.9731589619538323  0.18968270932546444           0.20898164041771003          1.0000   
         H         H         1.0       0.9708322453009666  0.22213129690218394           0.2551050123235993 1.0000   
         H         H         1.0       0.9707364175199718  0.1804845072081973  0.2660668688770993 1.0000   
         H         H         1.0       0.9563943056640338  0.16984539092332074           0.20910985321422337          1.0000   
         H         H         1.0       0.9941632194800835  0.17667420451998841           0.1953937153006863 1.0000   
         C         C         1.0       0.7096428360185073  0.45444224495388175           0.2667642284123521 1.0000   
         C         C         1.0       0.7071727013416983  0.49328828174941824           0.2640141575824689 1.0000   
         H         H         1.0       0.7172311145732863  0.4470644137836796  0.2943091709852566 1.0000   
         H         H         1.0       0.7308578227507607  0.4472569532293563  0.24764175602771715          1.0000   
         H         H         1.0       0.6932331731922928  0.49903800558254413           0.23730516627253614          1.0000   
         H         H         1.0       0.6884335386656691  0.5035857597946904  0.2828543532654271 1.0000   
         C         C         1.0       0.7829030936166921  0.6685413674584522  0.5036105853091194 1.0000   
         C         C         1.0       0.7454523778053903  0.1832048444830724  0.3305344602898451 1.0000   
         H         H         1.0       0.7885125034047431  0.6607032175010148  0.5325178664063079 1.0000   
         H         H         1.0       0.730641159592806   0.1558768944214554  0.3751876234254959 1.0000   
         H         H         1.0       0.754544631428716   0.18022432593151538           0.3016964156664767 1.0000   
         H         H         1.0       0.7679041978398781  0.19108182091697626           0.34527862208275034          1.0000   
         C         C         1.0       0.5469925790478706  0.2847189718821908  0.0837353501943261 1.0000   
         C         C         1.0       0.5539286373965278  0.32287840275406965           0.09415639478094362          1.0000   
         H         H         1.0       0.07040768742496617           0.15747900646383514          0.055014762507849424         1.0000   
         H         H         1.0       0.08442453532382    0.11762999683228204           0.040400620088478334         1.0000   
         H         H         1.0       0.08652256258722213           0.09371628094695073          0.09527057878830858          1.0000   
         H         H         1.0       0.5637358523591182  0.3340812229367406  0.06972699596046206          1.0000   
         C         C         1.0       0.8745912686452767  0.37479944174100843           0.6610326125960978 1.0000   
         C         C         1.0       0.8884640991369142  0.40966995203913564           0.6688208469960659 1.0000   
         H         H         1.0       0.8791670476141775  0.36932657673216046           0.6326497535487098 1.0000   
         H         H         1.0       0.8463284722536893  0.375162127380197   0.6620316209662656 1.0000   
         H         H         1.0       0.9155267442855741  0.40718643597904025           0.6668610746725873 1.0000   
         H         H         1.0       0.8884622279969401  0.4132786100045925  0.6978964737565018 1.0000   
         C         C         1.0       0.6413947931966892  0.40592167173857846           0.4524860718357831 1.0000   
         C         C         1.0       0.6483713012867605  0.373846837972234   0.4745218361607766 1.0000   
         H         H         1.0       0.624017357296227   0.4232516130419247  0.46692064709231135          1.0000   
         H         H         1.0       0.6306600201043423  0.40174860213807617           0.4257190892365915 1.0000   
         H         H         1.0       0.6295296930191719  0.36634283188923794           0.49725588466342396          1.0000   
         H         H         1.0       0.6724175702609229  0.37381223092820715           0.48703930882029833          1.0000   
         C         C         1.0       0.07537741237167106           0.4488783315313398 0.27062561439564115          1.0000   
         C         C         1.0       0.041168514568585834          0.4531553378112057 0.28412833009299293          1.0000   
         H         H         1.0       0.6271531922907924  0.568603342384293   0.4039973361175327 1.0000   
         H         H         1.0       0.08834358854751767           0.4723079389563842 0.26693260855321094          1.0000   
         H         H         1.0       0.03361213042704336           0.430404368775167  0.2993691434690084 1.0000   
         H         H         1.0       0.023592525215289095          0.45376585055302404          0.2607339068758617 1.0000   
         C         C         1.0       0.8974496430937542  0.6351548917011663  0.5951028877765191 1.0000   
         C         C         1.0       0.931420392998772   0.6285973295623549  0.6096938150079381 1.0000   
         H         H         1.0       0.8986496820422302  0.6422886275245469  0.5658702395861698 1.0000   
         H         H         1.0       0.8841307394144075  0.6552484253684802  0.6099897935569415 1.0000   
         H         H         1.0       0.9286026572893799  0.6196591031351528  0.63973155018273   1.0000   
         H         H         1.0       0.9417370122062154  0.6518613668390869  0.6143306696907073 1.0000   
         C         C         1.0       0.9045714794960182  0.47289548565457357           0.4486815468415573 1.0000   
         C         C         1.0       0.8888099719975338  0.46232823004916335           0.4106836094013822 1.0000   
         H         H         1.0       0.9280469409558514  0.45832463561150527           0.45519381905144535          1.0000   
         H         H         1.0       0.8889919216717874  0.4640648684465604  0.47158190282744766          1.0000   
         H         H         1.0       0.893371759950823   0.43480317609187047           0.4110793650919495 1.0000   
         H         H         1.0       0.9004539477658514  0.47208327123986615           0.3862002461630887 1.0000   
         C         C         1.0       0.03777708703918248           0.6233858821577277 0.8439790903684387 1.0000   
         C         C         1.0       0.023599859178152327          0.6288653056139765 0.8819664774905537 1.0000   
         H         H         1.0       0.6275841612068536  0.6921521304047525  0.9067844177949241 1.0000   
         H         H         1.0       0.6368137012780196  0.6735126523104819  0.9502351000670727 1.0000   
         H         H         1.0       0.9991694253162917  0.6415254704052727  0.8781287174635528 1.0000   
         H         H         1.0       0.01835202986692752           0.6071642069298164 0.8991342778282916 1.0000   
         C         C         1.0       0.9692598747973538  0.3923858875253096  0.538044284963071  1.0000   
         C         C         1.0       0.9998699449533112  0.40494561471618346           0.5175446120826538 1.0000   
         H         H         1.0       0.9657651530466462  0.36652162411941946           0.533004952552638  1.0000   
         H         H         1.0       0.9452763321095018  0.4049168409836328  0.5281969309663117 1.0000   
         H         H         1.0       0.9971817588232089  0.3976434341791256  0.48831402738380913          1.0000   
         H         H         1.0       0.023276482174600766          0.3907037301853261 0.5256404347410853 1.0000   
         C         C         1.0       0.851043889839082   0.0660206970846009  0.908224086548072  1.0000   
         C         C         1.0       0.8259750177849116  0.6157934862073198  0.7141938649751961 1.0000   
         H         H         1.0       0.877957912475736   0.06709512486626523           0.9170185315111774 1.0000   
         H         H         1.0       0.8363313862377975  0.060664835486297086         0.9327819155166563 1.0000   
         H         H         1.0       0.8347198373831569  0.6314106576189328  0.692871280281051  1.0000   
         H         H         1.0       0.8063757462023218  0.5999424797308806  0.7009002431087347 1.0000   
         C         C         1.0       0.0003332847990613619         0.37357255830786923          0.825989381613386  1.0000   
         C         C         1.0       0.015760392980503468          0.33742315103886256          0.8322159172081308 1.0000   
         H         H         1.0       0.013789334841713075          0.38715191955617295          0.8464902927608889 1.0000   
         H         H         1.0       0.9729895857363854  0.3760181547104529  0.8338296232038428 1.0000   
         H         H         1.0       0.01942264582297626           0.33486779143800405          0.8619689979680765 1.0000   
         H         H         1.0       0.040354023177622045          0.3372161361562819 0.8215427583629897 1.0000   
         C         C         1.0       0.6777006422197432  0.5316466761675792  0.6942477582889852 1.0000   
         C         C         1.0       0.6829064308777865  0.5395693986664113  0.6526908229955173 1.0000   
         H         H         1.0       0.6900357197708465  0.5508320594093314  0.711919472635712  1.0000   
         H         H         1.0       0.6891860013387164  0.5085292046021138  0.7022638147769551 1.0000   
         H         H         1.0       0.6729870503349208  0.5642284530376453  0.6436167971030428 1.0000   
         H         H         1.0       0.6679732728683624  0.5237305377470842  0.6373385278576796 1.0000   
         C         C         1.0       0.9544556672221004  0.4714246582613209  0.9333264762668911 1.0000   
         C         C         1.0       0.9217459285191305  0.47912911510284045           0.9168763132887159 1.0000   
         H         H         1.0       0.9572756576926057  0.4899920276517426  0.9554261988235989 1.0000   
         H         H         1.0       0.9735949577735917  0.47587293096825833           0.9148518654176486 1.0000   
         H         H         1.0       0.9080124224475172  0.49318299906627755           0.9359884773746794 1.0000   
         H         H         1.0       0.9097455375125285  0.45410627866814385           0.912635667160792  1.0000   
         C         C         1.0       0.002515864487786068          0.8861328271784582 0.6243287918167719 1.0000   
         C         C         1.0       0.025596120803103695          0.8667816486362389 0.6429423602058533 1.0000   
         C         C         1.0       0.03969841233218285           0.877891925294566  0.6754290723733418 1.0000   
         C         C         1.0       0.02671476877342238           0.9062009852853196 0.6913468335651121 1.0000   
         C         C         1.0       0.0016428549723541686         0.9231902699672375 0.6744728685357737 1.0000   
         C         C         1.0       0.9896610029981793  0.9139349088121798  0.6406567379301131 1.0000   
         H         H         1.0       0.032686806046722916          0.842267825282698  0.6308176632771477 1.0000   
         H         H         1.0       0.06024657736432437           0.865325170637829  0.6865792322588452 1.0000   
         H         H         1.0       0.9977857860320611  0.9471868775799513  0.683597781552379  1.0000   
         H         H         1.0       0.9729559529293643  0.9283550168914677  0.6261830277684544 1.0000   
         C         C         1.0       0.05975538800449831           0.9745592596833773 0.6983481091790346 1.0000   
         C         C         1.0       0.06876547732400229           0.9432524401532493 0.7062565893938756 1.0000   
         C         C         1.0       0.0991367477641869  0.9328882992145844  0.6947619127265169 1.0000   
         C         C         1.0       0.11908167383279133           0.953295750041666  0.6767095527316205 1.0000   
         C         C         1.0       0.6303436681134836  0.8971657158178371  0.6890491704642487 1.0000   
         C         C         1.0       0.6203800125627456  0.917076435190912   0.7172355129049391 1.0000   
         C         C         1.0       0.044344653754710084          0.9220568458528273 0.726437053155626  1.0000   
         C         C         1.0       0.0602455797159096  0.8943696029310191  0.7524057686320222 1.0000   
         C         C         1.0       0.08896576636249276           0.9006044777811685 0.7721391554899286 1.0000   
         C         C         1.0       0.09996327024093232           0.8815871741927914 0.8001730551904184 1.0000   
         C         C         1.0       0.08239719692369962           0.8559526822579394 0.8120499412922938 1.0000   
         C         C         1.0       0.052935175776316123          0.849021751571918  0.7942052272917572 1.0000   
         C         C         1.0       0.04165281498491247           0.8696222514921534 0.7663275131728855 1.0000   
         C         C         1.0       0.035435318048153475          0.9618868453150995 0.7805418838688104 1.0000   
         C         C         1.0       0.019262442217142794          0.9754414340802475 0.8089818935156002 1.0000   
         C         C         1.0       0.9871045350039505  0.9659964218600666  0.8187139878465279 1.0000   
         C         C         1.0       0.9722725832840496  0.9465922370501777  0.7918462616695956 1.0000   
         C         C         1.0       0.9878427471952532  0.9339719515986052  0.761268373799013  1.0000   
         C         C         1.0       0.020885759631185108          0.9413566743275487 0.7538298056519446 1.0000   
         C         C         1.0       0.972929481022409   0.9708681399442285  0.8587300698066136 1.0000   
         C         C         1.0       0.9804371783543562  0.8708946207353258  0.8985167752335884 1.0000   
         C         C         1.0       0.007513889945042207          0.8892806459044046 0.8927955293537471 1.0000   
         C         C         1.0       0.005604786797858363          0.920087793101901  0.8800917960629577 1.0000   
         C         C         1.0       0.975364320072224   0.9347071764369363  0.8754265449974414 1.0000   
         C         C         1.0       0.9480526797290542  0.9156577705275886  0.8769575695476131 1.0000   
         C         C         1.0       0.9496572509923874  0.8838235330208539  0.888503074535367  1.0000   
         C         C         1.0       0.9375917973347553  0.9874205301074255  0.8623844428861267 1.0000   
         C         C         1.0       0.9205269113206358  0.9996108457003103  0.8329426971986821 1.0000   
         C         C         1.0       0.891658513153791   0.016774170153877943         0.8374900121075273 1.0000   
         C         C         1.0       0.8801386509448286  0.020763089991958195         0.8731251764951958 1.0000   
         C         C         1.0       0.8969693780765632  0.006518968203749864         0.902244056943839  1.0000   
         C         C         1.0       0.9238434713086071  0.9890056621928073  0.8961930432160967 1.0000   
         C         C         1.0       0.012071267110537187          0.9911868062038345 0.9124854385160313 1.0000   
         C         C         1.0       0.03598236296432589           0.011895410812893692         0.926194713462667  1.0000   
         C         C         1.0       0.04125979935389679           0.04116801119129665          0.9084283728725977 1.0000   
         C         C         1.0       0.023920498315060712          0.049483245304629  0.8763051200203444 1.0000   
         C         C         1.0       0.9997981200810129  0.02808687433139956           0.863701487018132  1.0000   
         C         C         1.0       0.995368547878707   0.9973763729878474  0.8791893021392001 1.0000   
         H         H         1.0       0.03608314303991933           0.9869791873383098 0.7045140070467795 1.0000   
         H         H         1.0       0.10836455873976458           0.9080976270840263 0.7012899139604459 1.0000   
         H         H         1.0       0.6107455450983841  0.8620122814667669  0.6487047455937224 1.0000   
         H         H         1.0       0.636099046536746   0.936332453593127   0.7287791352070494 1.0000   
         H         H         1.0       0.10646497728666615           0.9188987421847363 0.7646862766936319 1.0000   
         H         H         1.0       0.12317623370198616           0.8846798328431482 0.8138322814840598 1.0000   
         H         H         1.0       0.03575338910062387           0.830577980845966  0.800517198203426  1.0000   
         H         H         1.0       0.016542446260088495          0.8655630840095011 0.7547003187457809 1.0000   
         H         H         1.0       0.0601809490024372  0.9686060125714958  0.7781601867288795 1.0000   
         H         H         1.0       0.03392731302617946           0.9871208496829121 0.8291792034259047 1.0000   
         H         H         1.0       0.9487014411254452  0.9365735481455602  0.7965266387241522 1.0000   
         H         H         1.0       0.9764223489728235  0.9162124828321833  0.7441775832239363 1.0000   
         H         H         1.0       0.03157140423455895           0.8804667627002479 0.8991649571384025 1.0000   
         H         H         1.0       0.02788602564907272           0.934928823655152  0.8808457122580704 1.0000   
         H         H         1.0       0.9244069073863731  0.9254831443315639  0.8693274502855719 1.0000   
         H         H         1.0       0.9281215641989727  0.8689701890339087  0.8935975846858535 1.0000   
         H         H         1.0       0.9302075275028315  0.9985813262375561  0.8076956219923294 1.0000   
         H         H         1.0       0.8761183292350775  0.029388259318621213         0.8192993163803449 1.0000   
         H         H         1.0       0.8883737604333548  0.005202153707003276         0.9310399416937283 1.0000   
         H         H         1.0       0.9353157981974033  0.9739439141485644  0.9168209574925048 1.0000   
         H         H         1.0       0.00909932183357065           0.9674589729813716 0.9239164248673903 1.0000   
         H         H         1.0       0.05319828181016395           0.0020234243056729273        0.9478211623442256 1.0000   
         H         H         1.0       0.03444167192502867           0.06969229529624821          0.8630334007631193 1.0000   
         H         H         1.0       0.9866221341363914  0.033355551285096485         0.837351911692713  1.0000   
         C         C         1.0       0.8668297167012807  0.9355083759560286  0.4776058034396739 1.0000   
         C         C         1.0       0.8352092700472269  0.9340412821290096  0.4664999584130668 1.0000   
         C         C         1.0       0.8202841237365845  0.9055233546297896  0.45645570969895305          1.0000   
         C         C         1.0       0.8379637804974731  0.876716954797533   0.45702295550436106          1.0000   
         C         C         1.0       0.8712160470032826  0.8773883864985028  0.4662060866185765 1.0000   
         C         C         1.0       0.8861353448142972  0.9072965443824962  0.47312362411145026          1.0000   
         H         H         1.0       0.8221818285692369  0.9568576642127684  0.46802033110961877          1.0000   
         H         H         1.0       0.7937619747937503  0.9074809598649669  0.45115426177261436          1.0000   
         H         H         1.0       0.8843383100482042  0.8557492160190077  0.46106345082847355          1.0000   
         H         H         1.0       0.9126276208448383  0.9078435225546186  0.47976897289008763          1.0000   
         C         C         1.0       0.8601171749061816  0.8223769578740888  0.40379194149397835          1.0000   
         C         C         1.0       0.8387932113046402  0.8152074162603357  0.4321257768029644 1.0000   
         C         C         1.0       0.8322276114712509  0.7836383432707683  0.43945446635343705          1.0000   
         C         C         1.0       0.8456678689950061  0.7588070966859014  0.41960926382933345          1.0000   
         C         C         1.0       0.8672803001241903  0.7653157833691481  0.39243040712129007          1.0000   
         C         C         1.0       0.8774689974373521  0.7964530180102745  0.38702541521737405          1.0000   
         C         C         1.0       0.8181784626039476  0.8433380522578462  0.4491216024848891 1.0000   
         C         C         1.0       0.7861492755667732  0.8453914488668324  0.42153359856378947          1.0000   
         C         C         1.0       0.7589963677282007  0.8260904178532157  0.4274152271773233 1.0000   
         C         C         1.0       0.7305722370304004  0.832731901908956   0.40794943174228965          1.0000   
         C         C         1.0       0.7303394526818905  0.8542919783577715  0.37883252094222397          1.0000   
         C         C         1.0       0.7588473531120025  0.8688464231827625  0.36674302182254515          1.0000   
         C         C         1.0       0.7869968050310421  0.8619786137280705  0.3890907860954338 1.0000   
         C         C         1.0       0.8315632193043119  0.8302648384471698  0.5146167397562729 1.0000   
         C         C         1.0       0.831746688555572   0.8420378200998435  0.5507397766878986 1.0000   
         C         C         1.0       0.808625972030033   0.8646070494875214  0.5634352301752477 1.0000   
         C         C         1.0       0.7828620137788181  0.8690484370557222  0.5394330463658786 1.0000   
         C         C         1.0       0.7809928603674625  0.8567264643892288  0.5041479217338785 1.0000   
         C         C         1.0       0.8071140241374871  0.8400600466199468  0.4910167130293991 1.0000   
         C         C         1.0       0.8084684614723617  0.883031525733284   0.6043418415235164 1.0000   
         C         C         1.0       0.7177078770020151  0.8679866485785076  0.6632367615563428 1.0000   
         C         C         1.0       0.7238843028678124  0.8483781133614624  0.633644556156972  1.0000   
         C         C         1.0       0.7512755945834897  0.8525820473819467  0.6143674190623762 1.0000   
         C         C         1.0       0.7755286461755521  0.8743042798528009  0.6268731714690677 1.0000   
         C         C         1.0       0.7697494407082256  0.8885783624548232  0.6602424917427385 1.0000   
         C         C         1.0       0.7411205314613039  0.8873441651954819  0.6772747039437348 1.0000   
         C         C         1.0       0.8132029367480631  0.9240224483582505  0.599931394713839  1.0000   
         C         C         1.0       0.8081806142723881  0.9400499931678055  0.5659351521280455 1.0000   
         C         C         1.0       0.8072762615837445  0.9724044711549285  0.5644508670310858 1.0000   
         C         C         1.0       0.8145380470883442  0.9911302727808574  0.5938724162661171 1.0000   
         C         C         1.0       0.8237819792946675  0.9767042588642232  0.6260062287613178 1.0000   
         C         C         1.0       0.8232055942334575  0.9432612115905687  0.6288810837886426 1.0000   
         C         C         1.0       0.8372953327292162  0.8451725701578094  0.6544282261263871 1.0000   
         C         C         1.0       0.8644594507864164  0.8333764358709074  0.6710065852071585 1.0000   
         C         C         1.0       0.8941277563146304  0.8454555574161562  0.662540515539898  1.0000   
         C         C         1.0       0.8971456449116331  0.8694780760673259  0.6373062572878637 1.0000   
         C         C         1.0       0.8709011748927855  0.8799903641670735  0.6186309737452736 1.0000   
         C         C         1.0       0.8390223892497278  0.8696856687607087  0.627332090694252  1.0000   
         H         H         1.0       0.8663475394864709  0.8462038725200552  0.4023341920753843 1.0000   
         H         H         1.0       0.8158374323782922  0.7763737218210126  0.4601795618245873 1.0000   
         H         H         1.0       0.8365975334632516  0.7337394683264892  0.42018582756274864          1.0000   
         H         H         1.0       0.8922784997922037  0.8027099092346537  0.36565486751289106          1.0000   
         H         H         1.0       0.7600817137562343  0.8089288641046788  0.4505943526563663 1.0000   
         H         H         1.0       0.7078182090088921  0.821849410092045   0.41375503164335287          1.0000   
         H         H         1.0       0.7577785321191756  0.8878035593507     0.3460255886716467 1.0000   
         H         H         1.0       0.8080576902820265  0.8779851965132032  0.38446226844524056          1.0000   
         H         H         1.0       0.8541885245404365  0.8174395637401076  0.5070535402511607 1.0000   
         H         H         1.0       0.8504261671950628  0.8319882994630281  0.5689711329436608 1.0000   
         H         H         1.0       0.7603431665699802  0.8836079795509034  0.5453347773803553 1.0000   
         H         H         1.0       0.7612508987419684  0.8657633821687329  0.48685525940122387          1.0000   
         H         H         1.0       0.7053968887275692  0.8317521918784847  0.6239515156652213 1.0000   
         H         H         1.0       0.7542161157011404  0.8384634205428496  0.5903097519903048 1.0000   
         H         H         1.0       0.7873629793573708  0.9067450210171966  0.6720724268275562 1.0000   
         H         H         1.0       0.7362085690552042  0.9065981437997027  0.6979269036403679 1.0000   
         H         H         1.0       0.8039518654061245  0.9278990711032346  0.5401655432244259 1.0000   
         H         H         1.0       0.8016913181546101  0.9834222977018166  0.5377130931161543 1.0000   
         H         H         1.0       0.8314752024893994  0.9904778753283879  0.6503686318385288 1.0000   
         H         H         1.0       0.8321710715536423  0.934102582197949   0.6534143462184279 1.0000   
         H         H         1.0       0.8135797457997396  0.837301744467383   0.6641714078939064 1.0000   
         H         H         1.0       0.8632509447140487  0.8128200603978467  0.6910927323721706 1.0000   
         H         H         1.0       0.9222213750615071  0.875865764117183   0.6279818400148852 1.0000   
         H         H         1.0       0.872728414472229   0.8968676751262963  0.5960286191046575 1.0000   
         C         C         1.0       0.6593534234609806  0.6375277948700931  0.10738761513722653          1.0000   
         C         C         1.0       0.6779041486285597  0.6285860792350675  0.13849691373641387          1.0000   
         C         C         1.0       0.6692026269129708  0.6429641062227708  0.17135647543377736          1.0000   
         C         C         1.0       0.6457122708159593  0.6673238643972884  0.17468028336714783          1.0000   
         C         C         1.0       0.6266387798706593  0.6727134123066056  0.14482942760766615          1.0000   
         C         C         1.0       0.6322754230667815  0.6569579157798858  0.11116243908774981          1.0000   
         H         H         1.0       0.6969532280637174  0.611260139180875   0.1385735307934452 1.0000   
         H         H         1.0       0.6835882063848789  0.634969739987371   0.1954810151725021 1.0000   
         H         H         1.0       0.606201853894612   0.6876750433432655  0.1463808753956037 1.0000   
         H         H         1.0       0.6172160302332669  0.6605462318284122  0.08608232106546243          1.0000   
         C         C         1.0       0.13735719627989784           0.7597130726909288 0.22478578241473354          1.0000   
         C         C         1.0       0.15627429273369065           0.7871592048377999 0.22910714012795313          1.0000   
         C         C         1.0       0.14132001150118412           0.81587405903072   0.214965398212675  1.0000   
         C         C         1.0       0.11263936391377327           0.8170617193366427 0.195527405828067  1.0000   
         C         C         1.0       0.092461856696755   0.7896262143910363  0.19767695047220132          1.0000   
         C         C         1.0       0.1050819957664082  0.761076658852413   0.21445009858068542          1.0000   
         C         C         1.0       0.6409744282666954  0.6868913006658396  0.2134540103482377 1.0000   
         C         C         1.0       0.6415546109774125  0.7263292051519324  0.207947392430092  1.0000   
         C         C         1.0       0.6305859137385986  0.7479396819384073  0.234157741606326  1.0000   
         C         C         1.0       0.6366102331892243  0.7802422511999928  0.23237007726243708          1.0000   
         C         C         1.0       0.6524772689357323  0.7940870190399355  0.20439832514636766          1.0000   
         C         C         1.0       0.6648445613525767  0.7726562304940181  0.17762068038370252          1.0000   
         C         C         1.0       0.6605035735072028  0.7393459840585532  0.18033787052659153          1.0000   
         C         C         1.0       0.6532660627893634  0.6760157496917069  0.28392494795007805          1.0000   
         C         C         1.0       0.6733933696089408  0.6785437721577616  0.3139275192029399 1.0000   
         C         C         1.0       0.7032710497712301  0.6923349734930067  0.3087159953008661 1.0000   
         C         C         1.0       0.7163453807362656  0.6910680840705709  0.2749631851391786 1.0000   
         C         C         1.0       0.696092416766738   0.6861332760095383  0.24392028281961547          1.0000   
         C         C         1.0       0.6637939461278379  0.6815628598012814  0.248314374868001  1.0000   
         C         C         1.0       0.7181705937231335  0.711427452217904   0.3424650035784841 1.0000   
         C         C         1.0       0.82352851366327    0.7303669728595263  0.33394851633312367          1.0000   
         C         C         1.0       0.8022596644773199  0.7563730723395996  0.33989232636537303          1.0000   
         C         C         1.0       0.7688106690492466  0.7512324885157348  0.3419460070113861 1.0000   
         C         C         1.0       0.7562806858281281  0.7209344152540188  0.33789196116261944          1.0000   
         C         C         1.0       0.7772886702389175  0.6945729971552733  0.3312872594088478 1.0000   
         C         C         1.0       0.8104500786781312  0.6993370535175357  0.33072177109612805          1.0000   
         C         C         1.0       0.722059881443885   0.6952074818474653  0.3820706516676242 1.0000   
         C         C         1.0       0.7239037771547139  0.6612347826396004  0.3874755259336114 1.0000   
         C         C         1.0       0.7289576061095446  0.6482980070860622  0.4212364778098161 1.0000   
         C         C         1.0       0.7372909206896704  0.6685084167404926  0.4509536686338418 1.0000   
         C         C         1.0       0.7333844203253611  0.7011973411024583  0.44591555457589804          1.0000   
         C         C         1.0       0.7288377485278162  0.7143861194357677  0.41256013247355466          1.0000   
         C         C         1.0       0.6907581651508603  0.7650566422363426  0.32006844470319484          1.0000   
         C         C         1.0       0.6659369353863704  0.7889625671285864  0.3209945135205501 1.0000   
         C         C         1.0       0.6409065645725166  0.7869476299869442  0.3451711538036231 1.0000   
         C         C         1.0       0.6409073727081942  0.7619403499765136  0.36906793215014544          1.0000   
         C         C         1.0       0.6648705261087218  0.7383879633786585  0.36996935669934644          1.0000   
         C         C         1.0       0.6909641759749732  0.7413290691505126  0.34704432912610284          1.0000   
         H         H         1.0       0.1473580773069736  0.7365567136953067  0.23425248814293248          1.0000   
         H         H         1.0       0.152355346669502   0.8391519983369117  0.2201497038750816 1.0000   
         H         H         1.0       0.10504865684038012           0.8411611436422156 0.1834074338427188 1.0000   
         H         H         1.0       0.08856876605885722           0.7407886496907389 0.21592162394820968          1.0000   
         H         H         1.0       0.622406696371704   0.7380364727941493  0.2589594237877236 1.0000   
         H         H         1.0       0.627807817807975   0.795447254144069   0.2559810615938871 1.0000   
         H         H         1.0       0.6789416314545607  0.782662538019221   0.15629221896901918          1.0000   
         H         H         1.0       0.6732009365542356  0.7239069118335651  0.15981007193231256          1.0000   
         H         H         1.0       0.15593061027534683           0.7440828897864643 0.29377881237207404          1.0000   
         H         H         1.0       0.6607349439277378  0.6774187675829842  0.3407580240496175 1.0000   
         H         H         1.0       0.7404190578128798  0.7006001014545781  0.2704213167393205 1.0000   
         H         H         1.0       0.7044157144094979  0.6876246753048001  0.21762860514579155          1.0000   
         H         H         1.0       0.8099250333712819  0.7807182290898642  0.34690821153773   1.0000   
         H         H         1.0       0.7546428883471735  0.7707559724336914  0.34881420117817985          1.0000   
         H         H         1.0       0.769431980574663   0.6705629323603506  0.3322417432582979 1.0000   
         H         H         1.0       0.8258779086360557  0.6768119482137441  0.3281644809326265 1.0000   
         H         H         1.0       0.7199095019530539  0.645366657325365   0.36403108304656756          1.0000   
         H         H         1.0       0.7322706710545915  0.6217182931838908  0.42391467434046204          1.0000   
         H         H         1.0       0.7383819499840497  0.7179197142692143  0.4685870635051669 1.0000   
         H         H         1.0       0.7334491616765597  0.7405186409631965  0.4100848570272738 1.0000   
         H         H         1.0       0.7071899599650516  0.7698220230003789  0.29833139950022963          1.0000   
         H         H         1.0       0.6690245878767412  0.809679609916266   0.30317217919083483          1.0000   
         H         H         1.0       0.6220457643747181  0.7616250948901835  0.38937114355497937          1.0000   
         H         H         1.0       0.6637927991942784  0.717905740298882   0.3900750884224033 1.0000   
         C         C         1.0       0.9631191002807128  0.6439047949230833  0.012808313988787345         1.0000   
         C         C         1.0       0.9952595070357856  0.654690513289247   0.019775717750336375         1.0000   
         C         C         1.0       0.000665304948913592          0.6867287110921411 0.028401344286778984         1.0000   
         C         C         1.0       0.974929635998118   0.706210746616626   0.04000067971021859          1.0000   
         C         C         1.0       0.9441534560658955  0.6930759010454679  0.03959081750886506          1.0000   
         C         C         1.0       0.9379478449299694  0.6639271864792152  0.02361477054137917          1.0000   
         H         H         1.0       0.015872508215064363          0.6415000502372101 0.01010910093631412          1.0000   
         H         H         1.0       0.022721364540154942          0.6996016251663689 0.02386350496634737          1.0000   
         H         H         1.0       0.9224378338777539  0.7046610831002599  0.04853307422411657          1.0000   
         H         H         1.0       0.9134174597111427  0.6560215101587505  0.019551849212522177         1.0000   
         C         C         1.0       0.9452358128066102  0.7616315132596995  0.9886271987179354 1.0000   
         C         C         1.0       0.9760853296652378  0.7535218052301108  0.004821521335113488         1.0000   
         C         C         1.0       0.0028641343107089767         0.7577109435644738 0.9830073324750251 1.0000   
         C         C         1.0       0.9994762857195677  0.7688879082836254  0.9481087349040797 1.0000   
         C         C         1.0       0.9698552242455438  0.7808268242897324  0.9355316834038625 1.0000   
         C         C         1.0       0.9423567518210355  0.7756693085507885  0.9554439648540459 1.0000   
         C         C         1.0       0.980764514503751   0.7427551264368342  0.04579750628243606          1.0000   
         C         C         1.0       0.013980744243842436          0.7562424261312883 0.06550386826373567          1.0000   
         C         C         1.0       0.02159395902050476           0.78938137214069   0.06193939494873968          1.0000   
         C         C         1.0       0.05111391346925509           0.8013410550329283 0.0731332687941797 1.0000   
         C         C         1.0       0.0755159578128366  0.7810305158141065  0.08538299399298022          1.0000   
         C         C         1.0       0.06864860064998735           0.7494526285214459 0.09191468408838732          1.0000   
         C         C         1.0       0.03780966342692693           0.7372600307734182 0.08314128212022975          1.0000   
         C         C         1.0       0.9424278913151142  0.7890372540325109  0.0700983830008639 1.0000   
         C         C         1.0       0.9247019941719087  0.8049649062802146  0.09626812995692013          1.0000   
         C         C         1.0       0.9174254128383703  0.7895413943467992  0.12898519012615428          1.0000   
         C         C         1.0       0.9309365447532627  0.759083437858193   0.13468705091969224          1.0000   
         C         C         1.0       0.9489260307414648  0.7434523293785182  0.10750463529071919          1.0000   
         C         C         1.0       0.9564077614678338  0.7590191751022429  0.07556013446194765          1.0000   
         C         C         1.0       0.9024451548469773  0.8123272796312044  0.16058930467848076          1.0000   
         C         C         1.0       0.002208357375825365          0.8224175412764866 0.20205026478244995          1.0000   
         C         C         1.0       0.9889431094832793  0.843992015278641   0.17608032409361277          1.0000   
         C         C         1.0       0.9569490085230995  0.8434555971126961  0.16577049504766683          1.0000   
         C         C         1.0       0.9353478370384399  0.8221032820350755  0.18165113067597471          1.0000   
         C         C         1.0       0.9471564704433937  0.8031695324782923  0.20934772183999395          1.0000   
         C         C         1.0       0.9814559535660637  0.8021990958343226  0.21840541392450888          1.0000   
         C         C         1.0       0.8756773660822568  0.7989313054898464  0.1890854498304675 1.0000   
         C         C         1.0       0.8602826302657942  0.7693245590421648  0.18740346516254314          1.0000   
         C         C         1.0       0.8353973741769237  0.761851634626946   0.2100479758139353 1.0000   
         C         C         1.0       0.8229348187031812  0.7847557061889989  0.23464438623096195          1.0000   
         C         C         1.0       0.8404122931070546  0.8122376719743409  0.23870460858264791          1.0000   
         C         C         1.0       0.8657539714337207  0.8205012399755428  0.2169451618950758 1.0000   
         C         C         1.0       0.8814310269971621  0.871052694673138   0.14607303861772877          1.0000   
         C         C         1.0       0.8614451998618744  0.891835889970015   0.12546673177763285          1.0000   
         C         C         1.0       0.8388386564336249  0.8792125060463639  0.10035397178408627          1.0000   
         C         C         1.0       0.8342498571131571  0.8471109318977852  0.0975251679154534 1.0000   
         C         C         1.0       0.8529941919773519  0.8269826607896079  0.117493516079207  1.0000   
         C         C         1.0       0.8778193335595701  0.8382317785876021  0.14199101825438842          1.0000   
         H         H         1.0       0.9217900069998514  0.7555478930332525  0.002287398846051225         1.0000   
         H         H         1.0       0.027030715100630376          0.7477356662512313 0.9887535721180196 1.0000   
         H         H         1.0       0.021912276772505068          0.7711068614581943 0.9320632853085767 1.0000   
         H         H         1.0       0.9184611405962244  0.7857037465712358  0.9460182143868    1.0000   
         H         H         1.0       0.007653942188359464          0.8050179377243682 0.044339375163359174         1.0000   
         H         H         1.0       0.057725881667195944          0.8264535452454698 0.06674404225177866          1.0000   
         H         H         1.0       0.08665433450726256           0.7353578477665145 0.1077582171621132 1.0000   
         H         H         1.0       0.029561049816212437          0.713038887330729  0.09188266484107976          1.0000   
         H         H         1.0       0.9472103934806393  0.8020341735609926  0.04359557345322762          1.0000   
         H         H         1.0       0.9166449035566191  0.8304705537516475  0.09186127187363002          1.0000   
         H         H         1.0       0.9318752470439376  0.748371505703899   0.16310584729229038          1.0000   
         H         H         1.0       0.962602593848726   0.7213201977273548  0.11365690667834283          1.0000   
         H         H         1.0       0.004659007125845216          0.8597039647820354 0.16094625538091417          1.0000   
         H         H         1.0       0.9468629374017433  0.8601809217469876  0.14560461111162076          1.0000   
         H         H         1.0       0.9336096740473088  0.7850467630101992  0.2216365803062128 1.0000   
         H         H         1.0       0.9913629279609013  0.7827080371537689  0.23557422965639496          1.0000   
         H         H         1.0       0.8651863173660169  0.7521277562079105  0.16554279387129767          1.0000   
         H         H         1.0       0.8210236863919063  0.7394607933800126  0.20211106219941288          1.0000   
         H         H         1.0       0.831293109382662   0.8290483234487812  0.2602807324642811 1.0000   
         H         H         1.0       0.8767862446956229  0.8443812317235886  0.2207372225919234 1.0000   
         H         H         1.0       0.8991641249397938  0.8797459525925843  0.16609044094751288          1.0000   
         H         H         1.0       0.8642664969076924  0.9187511091429886  0.125399865762903  1.0000   
         H         H         1.0       0.8162328291957293  0.837747436361072   0.07967769032381145          1.0000   
         H         H         1.0       0.8495661487310113  0.8000471886810637  0.11421525914885922          1.0000   
         C         C         1.0       0.6924854628958462  0.6709417771160416  0.0422807407455974 1.0000   
         C         C         1.0       0.6865274285918029  0.701990241070855   0.05481696739542885          1.0000   
         C         C         1.0       0.7117621437914351  0.722046960109174   0.06555735990475298          1.0000   
         C         C         1.0       0.7439656177080287  0.711178808680178   0.06522126442404641          1.0000   
         C         C         1.0       0.7505569636745261  0.6810293736998274  0.048829923644709394         1.0000   
         C         C         1.0       0.7248875291776467  0.6606657089918226  0.03964800465452023          1.0000   
         H         H         1.0       0.6612337676131289  0.7116185170086878  0.05846972920191629          1.0000   
         H         H         1.0       0.7049707458178239  0.7471041014679533  0.0752032787029211 1.0000   
         H         H         1.0       0.775166186270875   0.6739512978801637  0.044206636283368406         1.0000   
         H         H         1.0       0.7306352159453771  0.6369137359168902  0.027823329208648717         1.0000   
         C         C         1.0       0.7983103341344804  0.6870603392775376  0.12311759775174069          1.0000   
         C         C         1.0       0.8016803616951018  0.7127350075964921  0.09963743176002304          1.0000   
         C         C         1.0       0.8326852706292133  0.7244557050579659  0.0938106632553275 1.0000   
         C         C         1.0       0.7014476987209405  0.13983607345584548           0.16215393951379542          1.0000   
         C         C         1.0       0.6893276022646824  0.149919114357971   0.196246007010082  1.0000   
         C         C         1.0       0.6705794288885534  0.17900013112015944           0.19741061928300163          1.0000   
         C         C         1.0       0.7709816383767751  0.7328160159230701  0.08351674965223266          1.0000   
         C         C         1.0       0.7600699805714917  0.7536895855690535  0.11791856906250175          1.0000   
         C         C         1.0       0.7751786344418578  0.7841186982705198  0.124244509100633  1.0000   
         C         C         1.0       0.7727165783468356  0.8006531192064248  0.15732192649826016          1.0000   
         C         C         1.0       0.7573737526209102  0.7847284537974553  0.1865253431205527 1.0000   
         C         C         1.0       0.7424429380469225  0.7557931752576107  0.18028672730308193          1.0000   
         C         C         1.0       0.7410805794940175  0.741669269809569   0.14643792126055155          1.0000   
         C         C         1.0       0.791967900456635   0.740458966875413   0.01596666870565655          1.0000   
         C         C         1.0       0.7817646781354559  0.7487493412907688  0.9816545289105449 1.0000   
         C         C         1.0       0.756726015580477   0.7717459873527363  0.9770764576432742 1.0000   
         C         C         1.0       0.749244338263854   0.7923707626847788  0.006493062578913911         1.0000   
         C         C         1.0       0.758795540676753   0.7829483469179518  0.040547775630998206         1.0000   
         C         C         1.0       0.7781411158787883  0.7545193099832186  0.04626938308529782          1.0000   
         C         C         1.0       0.7331212558181884  0.7676121543873191  0.9417785147174589 1.0000   
         C         C         1.0       0.798081421523346   0.823864651069271   0.8738808173456213 1.0000   
         C         C         1.0       0.7964148946628822  0.7908805569708128  0.8695903994598667 1.0000   
         C         C         1.0       0.7764668813291054  0.772895260407611   0.8905630813218147 1.0000   
         C         C         1.0       0.7548279659045483  0.7889107032529684  0.9151302109852084 1.0000   
         C         C         1.0       0.7556506588585475  0.8223597409515644  0.9160551475847696 1.0000   
         C         C         1.0       0.7774128392774867  0.8394361091734854  0.897885228228191  1.0000   
         C         C         1.0       0.6963374848903136  0.7827302498761564  0.9443617872525243 1.0000   
         C         C         1.0       0.6781775883651341  0.7774941757697952  0.9742261113638506 1.0000   
         C         C         1.0       0.6450376298240155  0.7811837442850261  0.9743572284952677 1.0000   
         C         C         1.0       0.6285487412838927  0.791065434116628   0.942520679490988  1.0000   
         C         C         1.0       0.6468382747670773  0.801108804304451   0.9133352508263082 1.0000   
         C         C         1.0       0.6807110380561558  0.7988287795052117  0.9152935979930087 1.0000   
         C         C         1.0       0.7106688613953559  0.7272161652177938  0.8945204466493342 1.0000   
         C         C         1.0       0.6967356527000924  0.6988385960769894  0.8845337317494008 1.0000   
         C         C         1.0       0.6929616838666367  0.6761319440082432  0.9114262582178461 1.0000   
         C         C         1.0       0.7087060441149087  0.6783583794543995  0.9444379839770841 1.0000   
         C         C         1.0       0.7224570508415676  0.7066279683352722  0.9533115437057302 1.0000   
         C         C         1.0       0.7235893144203555  0.7327692433256691  0.929192984375263  1.0000   
         H         H         1.0       0.7733857047386202  0.678440419696816   0.12458875081409161          1.0000   
         H         H         1.0       0.837141013148324   0.7429741635881751  0.07383749940762718          1.0000   
         H         H         1.0       0.716466909014967   0.11914096491540871           0.1589916053222291 1.0000   
         H         H         1.0       0.6575079669257121  0.1858230276474988  0.22271439049723915          1.0000   
         H         H         1.0       0.7926029594495763  0.7947557681772047  0.10493391076161496          1.0000   
         H         H         1.0       0.7873839015599682  0.8223491721007046  0.16096143947948716          1.0000   
         H         H         1.0       0.7300796517369301  0.7450614435662939  0.20299063315194366          1.0000   
         H         H         1.0       0.728480310091824   0.7192542232163419  0.13864256389912213          1.0000   
         H         H         1.0       0.8080907557591976  0.7187612806495923  0.018617351418103834         1.0000   
         H         H         1.0       0.791080512036764   0.7335313914470813  0.9586844548898389 1.0000   
         H         H         1.0       0.7301939556561938  0.8103156846197243  0.005174982959809338         1.0000   
         H         H         1.0       0.744139308081514   0.7916815051656959  0.05982704828250762          1.0000   
         H         H         1.0       0.8103924408973088  0.777227949161812   0.8492439496853501 1.0000   
         H         H         1.0       0.7738260150795248  0.7465064140105183  0.8888882172976589 1.0000   
         H         H         1.0       0.740541897613836   0.8366516165874712  0.9345041570719836 1.0000   
         H         H         1.0       0.7827090571934495  0.865535332145503   0.9015246199389224 1.0000   
         H         H         1.0       0.6894075521855467  0.7682196750370435  0.9993964258275307 1.0000   
         H         H         1.0       0.63135806603266    0.7752346960195169  0.997332592452067  1.0000   
         H         H         1.0       0.6358747243613613  0.8063706810586849  0.8855542567805788 1.0000   
         H         H         1.0       0.6934880603185838  0.7998656047280226  0.8899763702923115 1.0000   
         H         H         1.0       0.7114241211759388  0.7478485454397483  0.8763136243560604 1.0000   
         H         H         1.0       0.6823125093032982  0.6969812553538248  0.8574405165005442 1.0000   
         H         H         1.0       0.7068282545270714  0.6614615669491912  0.9656588444571504 1.0000   
         H         H         1.0       0.7289408336615625  0.712146088087756   0.9807202378984223 1.0000   
         C         C         1.0       0.9425514138088184  0.6388712664347981  0.9233546250432969 1.0000   
         C         C         1.0       0.9262133235678683  0.626247105536866   0.8927351412499575 1.0000   
         C         C         1.0       0.9190782596854465  0.6464860770402471  0.8627781528751527 1.0000   
         C         C         1.0       0.9234584427711003  0.680917633912562   0.8628771739107787 1.0000   
         C         C         1.0       0.9417516525025337  0.6921834193741775  0.8938108276707131 1.0000   
         C         C         1.0       0.9507827423463883  0.6722278652210637  0.9232529112753421 1.0000   
         H         H         1.0       0.9206458700579266  0.5994124942569593  0.8920895304611146 1.0000   
         H         H         1.0       0.9061195169695365  0.637883753188897   0.8388470970127058 1.0000   
         H         H         1.0       0.9467470047533362  0.7177404082226762  0.8978964053648575 1.0000   
         H         H         1.0       0.9696990970193664  0.6835555980312045  0.9444926956750074 1.0000   
         C         C         1.0       0.8850345680832963  0.7461353424176916  0.8771242879392981 1.0000   
         C         C         1.0       0.8989143304176925  0.7402559796389842  0.8429672849753764 1.0000   
         C         C         1.0       0.8967902009607027  0.766956661636486   0.8185591648270001 1.0000   
         C         C         1.0       0.8857458909877993  0.7972573447993178  0.8281063314203895 1.0000   
         C         C         1.0       0.876378704516519   0.8026968747348081  0.8631921490619955 1.0000   
         C         C         1.0       0.8764967290245331  0.7767825730475579  0.8882567040000341 1.0000   
         C         C         1.0       0.9117259634795248  0.7046319701028501  0.8318349573915926 1.0000   
         C         C         1.0       0.879339641341302   0.6934800736816902  0.809477838822395  1.0000   
         C         C         1.0       0.8751409937299665  0.6953804653311578  0.7721296438883808 1.0000   
         C         C         1.0       0.8534693306378198  0.6778304799524167  0.7529947126418715 1.0000   
         C         C         1.0       0.8323525397830865  0.6571155346875703  0.7706207454344424 1.0000   
         C         C         1.0       0.8324941649996855  0.6571126088792695  0.8082935017653236 1.0000   
         C         C         1.0       0.8546559399975615  0.6768696430408279  0.8265332462497612 1.0000   
         C         C         1.0       0.9656678039344256  0.730777068568148   0.8160918049892074 1.0000   
         C         C         1.0       0.993799794653761   0.73512729465769    0.7966063318884596 1.0000   
         C         C         1.0       2.2611411361284084e-05        0.7144423660605166 0.7667833639180124 1.0000   
         C         C         1.0       0.9785583575875061  0.6883233661878768  0.7597057967068094 1.0000   
         C         C         1.0       0.9509944778159304  0.6866667657702722  0.7789674589645833 1.0000   
         C         C         1.0       0.9436091862955086  0.7068002124094424  0.8093103600079151 1.0000   
         C         C         1.0       0.030759717012379895          0.7217539879906164 0.7401009392611614 1.0000   
         C         C         1.0       0.0863978800734182  0.6350347799767493  0.6994664225033277 1.0000   
         C         C         1.0       0.08561073845391265           0.6645248140448037 0.6785459592331942 1.0000   
         C         C         1.0       0.06723683786480561           0.690303152274083  0.6906522085572168 1.0000   
         C         C         1.0       0.0486561364476199  0.6904564768431543  0.7225029865590431 1.0000   
         C         C         1.0       0.05256889476281712           0.6618081590348049 0.7447087340054362 1.0000   
         C         C         1.0       0.06932353605427277           0.6345282121177528 0.7317013584462198 1.0000   
         C         C         1.0       0.062280378806265135          0.7364486366695057 0.763715418506936  1.0000   
         C         C         1.0       0.06869364357981156           0.7288876897359813 0.8003374969182848 1.0000   
         C         C         1.0       0.0860748771987292  0.7493839545150351  0.8222590271111554 1.0000   
         C         C         1.0       0.10113160236537855           0.7774329874253169 0.8059186296506627 1.0000   
         C         C         1.0       0.10224263074356399           0.7783210520036671 0.7685304159098929 1.0000   
         C         C         1.0       0.08240655823230836           0.7594887858564972 0.748013560725229  1.0000   
         C         C         1.0       0.9945213638462709  0.7342388539018725  0.6811693031629368 1.0000   
         C         C         1.0       0.9751583694904273  0.7540097186136128  0.6604134301148636 1.0000   
         C         C         1.0       0.9700958164779339  0.7863285759744516  0.6722036625935325 1.0000   
         C         C         1.0       0.9884778815438336  0.7975733482603549  0.7009184000661351 1.0000   
         C         C         1.0       0.009259136709607763          0.7766865494735541 0.7216403687700972 1.0000   
         C         C         1.0       0.011651035247493446          0.7440283203942814 0.7118339217785373 1.0000   
         H         H         1.0       0.8816871698915657  0.7246687038511432  0.8957791957476514 1.0000   
         H         H         1.0       0.9074568278469061  0.7614883740189752  0.7915840138535022 1.0000   
         H         H         1.0       0.8861703837307917  0.8177426972559965  0.8086435658984145 1.0000   
         H         H         1.0       0.8671874573112176  0.780405493568984   0.9156528842997362 1.0000   
         H         H         1.0       0.8932700461279959  0.7066632708372879  0.7547140072454823 1.0000   
         H         H         1.0       0.8519084429459438  0.6796225504150908  0.7228178148516018 1.0000   
         H         H         1.0       0.8131748293738392  0.646274950572354   0.8226809147108258 1.0000   
         H         H         1.0       0.8540861334397063  0.6728498360043239  0.8572004702888326 1.0000   
         H         H         1.0       0.9617011023399159  0.7482290088808019  0.8384237170384317 1.0000   
         H         H         1.0       0.009408394773889661          0.7568087298495063 0.8018970584200401 1.0000   
         H         H         1.0       0.9808424499917143  0.6687999804351062  0.739387485166042  1.0000   
         H         H         1.0       0.936183393305464   0.664543798537193   0.7751108078810283 1.0000   
         H         H         1.0       0.10181880234183027           0.6688437187584183 0.6554577765857752 1.0000   
         H         H         1.0       0.06755040937510981           0.7109024881950647 0.6727286606504186 1.0000   
         H         H         1.0       0.04001151715270845           0.6603496345173623 0.769668461830863  1.0000   
         H         H         1.0       0.07011504424671844           0.6117416104258054 0.7480827717089427 1.0000   
         H         H         1.0       0.057447162563876164          0.7088285509432125 0.8114387843280271 1.0000   
         H         H         1.0       0.0877068794340723  0.7478333128585168  0.8504602797779502 1.0000   
         H         H         1.0       0.11459724761108725           0.7985431413900395 0.7543682156383565 1.0000   
         H         H         1.0       0.08013011602315134           0.7667209021648913 0.717785559536878  1.0000   
         H         H         1.0       0.9990358729605167  0.7085001857704226  0.6725603482099264 1.0000   
         H         H         1.0       0.9637787315972002  0.7437947024934284  0.636464136734522  1.0000   
         H         H         1.0       0.9897420182620822  0.8234895148029426  0.7071691431792763 1.0000   
         H         H         1.0       0.01969576260037398           0.789034586931016  0.7446239389187072 1.0000   
         C         C         1.0       0.006629598270009085          0.9338536668762614 0.5511029098656001 1.0000   
         C         C         1.0       0.9769876224083187  0.943003381459558   0.5354134647887819 1.0000   
         C         C         1.0       0.9662543811845501  0.9738556359634888  0.533488912256716  1.0000   
         C         C         1.0       0.9851307941664751  0.9995893873852726  0.5490651118722106 1.0000   
         C         C         1.0       0.014837596434192246          0.9912535190096425 0.5647716718206847 1.0000   
         C         C         1.0       0.02584668986328098           0.9590907200541993 0.565653944829467  1.0000   
         H         H         1.0       0.9579619663469027  0.9259977075485032  0.5265773695386394 1.0000   
         H         H         1.0       0.9446407084368759  0.9822755803244436  0.5196350585265841 1.0000   
         H         H         1.0       0.02950730376540034           0.008904366976287603         0.5774391868483666 1.0000   
         H         H         1.0       0.04923241461078476           0.9510839778928412 0.5764982269545236 1.0000   
         C         C         1.0       0.9861651244660398  0.054507222039476444         0.6097245404821631 1.0000   
         C         C         1.0       0.9851793518588917  0.06374877435335491           0.5744270474713878 1.0000   
         C         C         1.0       0.9887520521127493  0.09547675908465125           0.565734431127123  1.0000   
         C         C         1.0       0.08453791042359948           0.6080242865599434 0.587587337013653  1.0000   
         C         C         1.0       0.09665715375081962           0.5885250410723949 0.6166902567189427 1.0000   
         C         C         1.0       0.08512360333840951           0.5575579779581986 0.6184749040706369 1.0000   
         C         C         1.0       0.9750850675765401  0.03701129036470219           0.5450384768918619 1.0000   
         C         C         1.0       0.9350902440665759  0.03993387216973687           0.5489840662301728 1.0000   
         C         C         1.0       0.9143315444658304  0.05837676738542985           0.5261692074713311 1.0000   
         C         C         1.0       0.8815670528594736  0.061327038872298845         0.5307638971961964 1.0000   
         C         C         1.0       0.8672245473042711  0.04446900128917819           0.5578334906378843 1.0000   
         C         C         1.0       0.8867848054945873  0.026139355544835707         0.5813248481206393 1.0000   
         C         C         1.0       0.9191902092288592  0.022760304076398175         0.5760922198009366 1.0000   
         C         C         1.0       0.02131602544191713           0.05269528547115887          0.5023260705548039 1.0000   
         C         C         1.0       0.0377202526569933  0.04869955696606931           0.47156210171456997          1.0000   
         C         C         1.0       0.022937605299395036          0.03284924689601554          0.4400292116366403 1.0000   
         C         C         1.0       0.9899986533644309  0.025916816383247054         0.44322868088652995          1.0000   
         C         C         1.0       0.9737972443070588  0.03184303075714201           0.4748911870443862 1.0000   
         C         C         1.0       0.9899790672374544  0.04258070784602763           0.5076197587084587 1.0000   
         C         C         1.0       0.04430364416926147           0.016680283284430608         0.40783595390582794          1.0000   
         C         C         1.0       0.9980323511198644  0.065913875871769   0.31149979105224784          1.0000   
         C         C         1.0       0.01589570207343871           0.08371112861190255          0.33616854490096904          1.0000   
         C         C         1.0       0.03191860575758487           0.06589785236785395          0.36468017897920363          1.0000   
         C         C         1.0       0.02679223061209246           0.032360071758761544         0.3723187589002861 1.0000   
         C         C         1.0       0.005147509211855361          0.017317485745748096         0.3490920497272459 1.0000   
         C         C         1.0       0.9922104002620915  0.0326678962343363  0.31733367012447583          1.0000   
         C         C         1.0       0.0417883703562314  0.9778287564104395  0.4098615716836719 1.0000   
         C         C         1.0       0.034276936546705494          0.9613092976777122 0.44165588745701756          1.0000   
         C         C         1.0       0.033776414019844214          0.9279511468296079 0.4415998816593116 1.0000   
         C         C         1.0       0.04192747963909782           0.909514323825555  0.41020512190367275          1.0000   
         C         C         1.0       0.0496145631029028  0.9251351056348144  0.379740233234472  1.0000   
         C         C         1.0       0.048137215387419996          0.959509495411311  0.37938477809298   1.0000   
         C         C         1.0       0.1015737796370364  0.03422821599233261           0.38376529023754036          1.0000   
         C         C         1.0       0.13491096676002567           0.034705189230893385         0.3869140989523632 1.0000   
         C         C         1.0       0.15257165859878485           0.02046721089363479          0.41646128608865796          1.0000   
         C         C         1.0       0.13439806871026483           0.008975716233545539         0.44522589303145277          1.0000   
         C         C         1.0       0.1017367089553598  0.007668940048099149         0.4431904323635118 1.0000   
         C         C         1.0       0.08458870456424128           0.021272691953546197         0.4124308021423136 1.0000   
         H         H         1.0       0.9816748854221915  0.030052291682512777         0.6184012032639549 1.0000   
         H         H         1.0       0.9832037398749219  0.10571373290455122           0.5378868066598591 1.0000   
         H         H         1.0       0.0940459353191283  0.6326269628521578  0.5860830442071098 1.0000   
         H         H         1.0       0.09351599595198734           0.5397122181097818 0.6362663477341448 1.0000   
         H         H         1.0       0.9260466547369559  0.07265573717377838           0.505320502808999  1.0000   
         H         H         1.0       0.8665837042996067  0.0752109234175602  0.5121651155128466 1.0000   
         H         H         1.0       0.8781127394893699  0.017359155952703542         0.606886449412552  1.0000   
         H         H         1.0       0.932950461121102   0.008761303541006571         0.5978302825830414 1.0000   
         H         H         1.0       0.0355315517279271  0.0611926913938714  0.5272724951864568 1.0000   
         H         H         1.0       0.06253978074043354           0.05298172438805304          0.47459152543197203          1.0000   
         H         H         1.0       0.972816963804791   0.018199582736570408         0.42185333361682237          1.0000   
         H         H         1.0       0.950422856036158   0.024690264122414263         0.47593403132726325          1.0000   
         H         H         1.0       0.015043055541132944          0.1096582128564394 0.3373636157041673 1.0000   
         H         H         1.0       0.047978494571752295          0.07665118283622219          0.38437194812115594          1.0000   
         H         H         1.0       0.9991576171003808  0.9934776617919053  0.3529612803805414 1.0000   
         H         H         1.0       0.9758431959470412  0.0204972228664575  0.29683339674327175          1.0000   
         H         H         1.0       0.029573755383823563          0.9717709356319434 0.46952557659549277          1.0000   
         H         H         1.0       0.02934392430342747           0.9141325945453512 0.4653680249280657 1.0000   
         H         H         1.0       0.05917955876166414           0.91273156156363   0.35684868886176596          1.0000   
         H         H         1.0       0.05487625249883976           0.9717430872000012 0.3527065890792916 1.0000   
         H         H         1.0       0.0912185275107511  0.042171571327795476         0.3578538714741124 1.0000   
         H         H         1.0       0.14929065962850263           0.04256874062460514          0.36461853564221525          1.0000   
         H         H         1.0       0.1464485009188945  0.9949203873677918  0.46699730346449464          1.0000   
         H         H         1.0       0.0902306511118105  0.9975118857630653  0.46710752973329495          1.0000   
         C         C         1.0       0.8741633586639168  0.9963334793560653  0.4278295616942941 1.0000   
         C         C         1.0       0.8462746432467618  0.01323998631542267           0.4296132324397981 1.0000   
         C         C         1.0       0.8287629371074298  0.023843757906683027         0.3989193276480669 1.0000   
         C         C         1.0       0.8419007864596509  0.02059086807482946           0.3646769891808533 1.0000   
         C         C         1.0       0.869682735484482   0.0006419806964172992        0.3625964479390345 1.0000   
         C         C         1.0       0.8851130861436632  0.9876884517784756  0.39467722225028656          1.0000   
         H         H         1.0       0.8376360465646785  0.01999469804943188           0.45633353327504317          1.0000   
         H         H         1.0       0.8103394254692173  0.04087530912004533           0.40178649907584896          1.0000   
         H         H         1.0       0.8821715652562615  0.9955949641854493  0.3372242442315929 1.0000   
         H         H         1.0       0.9065895330967008  0.9737061624624083  0.39273014019134994          1.0000   
         C         C         1.0       0.8871521337340542  0.07288281691206233           0.3439912536841457 1.0000   
         C         C         1.0       0.862460289550999   0.06371432125557641           0.3185365144024452 1.0000   
         C         C         1.0       0.8679858736519724  0.07516471738525898           0.2836924365382358 1.0000   
         C         C         1.0       0.8969014982232857  0.08961381149027181           0.27257417703480413          1.0000   
         C         C         1.0       0.9223542800565324  0.0920150826147148  0.2977682602565776 1.0000   
         C         C         1.0       0.9175175717624076  0.08352880382105732           0.3332093001995291 1.0000   
         C         C         1.0       0.8299810261747204  0.04269345912927358           0.3292679677642482 1.0000   
         C         C         1.0       0.8037861335795328  0.07183678365287949           0.3354293223453311 1.0000   
         C         C         1.0       0.7783861407177904  0.07441129663621981           0.31110854306869523          1.0000   
         C         C         1.0       0.7551339385693439  0.0996158302654766  0.31579126538677077          1.0000   
         C         C         1.0       0.7581104045131898  0.12141655021409159           0.3433471160511939 1.0000   
         C         C         1.0       0.7858458117394436  0.12237044135392816           0.36507315303977594          1.0000   
         C         C         1.0       0.8074974920898418  0.09596547671339617           0.3633066697262309 1.0000   
         C         C         1.0       0.8250112703417938  0.008885885128174342         0.26972652950717674          1.0000   
         C         C         1.0       0.8059506956030285  0.9914875566988246  0.24503200545442883          1.0000   
         C         C         1.0       0.7767222958456219  0.9764076176532565  0.25688352426195304          1.0000   
         C         C         1.0       0.7707640536755848  0.977699955580105   0.2948951888107939 1.0000   
         C         C         1.0       0.789378131361668   0.9965242013903808  0.31661128139111694          1.0000   
         C         C         1.0       0.8150908650704993  0.014580938328927262         0.304686875305418  1.0000   
         C         C         1.0       0.7463773438249715  0.9689793534459442  0.2305198828740366 1.0000   
         C         C         1.0       0.6934013164757895  0.06389047864786379           0.23569652477986008          1.0000   
         C         C         1.0       0.7198493890678974  0.059921942621204094         0.21283854291211046          1.0000   
         C         C         1.0       0.7353590226728132  0.03135318605310178           0.21083992580100122          1.0000   
         C         C         1.0       0.7272333910486457  0.0042081887200715595        0.2307087132928137 1.0000   
         C         C         1.0       0.7031038314505882  0.010210463544396031         0.2580810600816353 1.0000   
         C         C         1.0       0.6835948276570298  0.038130285669319974         0.25668300390769494          1.0000   
         C         C         1.0       0.7220087789227249  0.9381581479176155  0.23799539889861926          1.0000   
         C         C         1.0       0.7294157607565332  0.9117421547546868  0.2616319348201414 1.0000   
         C         C         1.0       0.7132768107382742  0.8832453006228057  0.26278111891705036          1.0000   
         C         C         1.0       0.6867670276832405  0.8791276982530983  0.2400719631631437 1.0000   
         C         C         1.0       0.67605984241298    0.9050385406954802  0.21831021305933548          1.0000   
         C         C         1.0       0.693480837108645   0.9327626980333594  0.21669742442487838          1.0000   
         C         C         1.0       0.7475587339701664  0.9626795545358245  0.1569021747501994 1.0000   
         C         C         1.0       0.7555042381812981  0.9464290826947007  0.12577545139950633          1.0000   
         C         C         1.0       0.7759093754929502  0.9207079076893196  0.13015104144918527          1.0000   
         C         C         1.0       0.7906353766177447  0.9118646301295631  0.1643187523757142 1.0000   
         C         C         1.0       0.7832991205310241  0.9301136231455129  0.19387941188874946          1.0000   
         C         C         1.0       0.760439405660838   0.9555673915238925  0.19155759706376038          1.0000   
         H         H         1.0       0.8856677557509195  0.07018033072758323           0.37354841692432   1.0000   
         H         H         1.0       0.8461941069812502  0.07616648752859856           0.2650830243797337 1.0000   
         H         H         1.0       0.9012453283374108  0.09963532538523379           0.24274264363023518          1.0000   
         H         H         1.0       0.9361280338036185  0.09026201736767847           0.3541509261844645 1.0000   
         H         H         1.0       0.7735811300196672  0.057561611550118075         0.28891063999814576          1.0000   
         H         H         1.0       0.7328223777473777  0.10014245763799656           0.2962821610256372 1.0000   
         H         H         1.0       0.788216868907058   0.14009563818459814           0.3861259025542395 1.0000   
         H         H         1.0       0.8278920345605276  0.09494861208770344           0.38247416310930665          1.0000   
         H         H         1.0       0.8440241531408199  0.021937753067076127         0.25815812646264474          1.0000   
         H         H         1.0       0.8114515088374605  0.9916590933826411  0.21532245051609514          1.0000   
         H         H         1.0       0.7474050532110504  0.9671128892676042  0.3049606399247943 1.0000   
         H         H         1.0       0.7832438530463124  0.9997196280140848  0.344364505289623  1.0000   
         H         H         1.0       0.7297800384579963  0.07889563418271184           0.19610310030175218          1.0000   
         H         H         1.0       0.7538314987198678  0.02894874682711257           0.19183516357468214          1.0000   
         H         H         1.0       0.6963287929152426  0.9915616279524527  0.2775730654408981 1.0000   
         H         H         1.0       0.6644673622440698  0.04105060571635799           0.2767731032778749 1.0000   
         H         H         1.0       0.7510984427971874  0.9113276213480829  0.27882676117036226          1.0000   
         H         H         1.0       0.7205759467462294  0.8642419516003383  0.2827859371862665 1.0000   
         H         H         1.0       0.6551027603706838  0.9024176232883444  0.1996050381679638 1.0000   
         H         H         1.0       0.688919732915542   0.9528304103701931  0.19696035961643088          1.0000   
         H         H         1.0       0.7266009076426152  0.9804628070809907  0.15227237422205797          1.0000   
         H         H         1.0       0.7430077714402582  0.9511790957530095  0.0996889602500114 1.0000   
         H         H         1.0       0.8037555411402998  0.8888628291363738  0.16833039589750012          1.0000   
         H         H         1.0       0.7959499333457346  0.9221048310199599  0.21998010636502946          1.0000   
         C         C         1.0       0.9540059528295131  0.1088441580533468  0.28586544439247097          1.0000   
         C         C         1.0       0.9820261760140638  0.08428900073423873           0.27804824687680363          1.0000   
         H         H         1.0       0.9479267592178134  0.12309641791822745           0.26198376506595916          1.0000   
         H         H         1.0       0.9639270252548551  0.12444960897449686           0.30918005201099624          1.0000   
         H         H         1.0       0.9999671374974187  0.09632451940514186           0.26219873339208183          1.0000   
         H         H         1.0       0.9719575756553389  0.06601754046197583           0.26036231125965686          1.0000   
         C         C         1.0       0.1094682200432191  0.6059573181634172  0.6893683274207422 1.0000   
         C         C         1.0       0.12061552750692117           0.6000004676567742 0.6486229797130639 1.0000   
         H         H         1.0       0.1327275819792355  0.6045635025410679  0.7059535625310106 1.0000   
         H         H         1.0       0.09539012179017958           0.5853097420749382 0.7000811240802932 1.0000   
         H         H         1.0       0.1425030771174849  0.5833807648444975  0.649844672608889  1.0000   
         H         H         1.0       0.13135371895837022           0.6209975976673964 0.638481840911738  1.0000   
         C         C         1.0       0.6953015726500115  0.12907000167819893           0.2313104667243348 1.0000   
         C         C         1.0       0.6759821116638831  0.09666244231762722           0.23418722904123265          1.0000   
         H         H         1.0       0.7225331508924939  0.12315155925680954           0.2320894204077879 1.0000   
         H         H         1.0       0.6929681033134856  0.1429276228302867  0.2584084845593743 1.0000   
         H         H         1.0       0.6580409502058813  0.09480746830333309           0.21006015996042704          1.0000   
         H         H         1.0       0.6590972232140516  0.09817325281430422           0.25774190865127117          1.0000   
         C         C         1.0       0.8600181354061769  0.8337796254372473  0.8744421746335852 1.0000   
         C         C         1.0       0.826853200559013   0.8412801515860511  0.855004425244375  1.0000   
         H         H         1.0       0.8586482116576875  0.8388830825839877  0.9060857965101184 1.0000   
         H         H         1.0       0.875062203887855   0.8533318595678564  0.8692716387615912 1.0000   
         H         H         1.0       0.828355901665071   0.837442598641229   0.8263421402909971 1.0000   
         H         H         1.0       0.8206576171908685  0.8672395117813299  0.8552659126884914 1.0000   
         C         C         1.0       0.8136406253357735  0.8988922260109954  0.07988221830453046          1.0000   
         C         C         1.0       0.7792975092044347  0.8982865776546576  0.09657426211935305          1.0000   
         H         H         1.0       0.8171784735098765  0.894548132756738   0.04986982527419159          1.0000   
         H         H         1.0       0.8192876935589687  0.9237070055892251  0.08248486216355144          1.0000   
         H         H         1.0       0.7611585465185142  0.9050701906054729  0.07601225943210443          1.0000   
         H         H         1.0       0.7733033859729015  0.8738279111680316  0.10591479116722251          1.0000   
         C         C         1.0       0.9615570301335616  0.6143532474621659  0.947985066064192  1.0000   
         C         C         1.0       0.9563766723481998  0.6137000109443987  0.9895758293224605 1.0000   
         H         H         1.0       0.9580502219226547  0.590775536649368   0.936639578334148  1.0000   
         H         H         1.0       0.9871282116588964  0.6188670643341896  0.9445718043963746 1.0000   
         H         H         1.0       0.9678798271260498  0.589892003395999   0.0009573462746661487        1.0000   
         H         H         1.0       0.9295930076112742  0.6095900345888905  0.9900252742845083 1.0000   
         C         C         1.0       0.7609994630693373  0.7974597181213894  0.2265286878956656 1.0000   
         C         C         1.0       0.787966728048537   0.780299281931429   0.24838846839638928          1.0000   
         H         H         1.0       0.7633418458706499  0.8241025280894975  0.22834634679199017          1.0000   
         H         H         1.0       0.738943484965519   0.7903441455208653  0.2419342182749848 1.0000   
         H         H         1.0       0.7808785303252269  0.7546946817994333  0.25119710955118024          1.0000   
         H         H         1.0       0.7866026507489657  0.7901936084234351  0.27835292331014616          1.0000   
         C         C         1.0       0.11072725448264298           0.795805856547144  0.09003973336056692          1.0000   
         C         C         1.0       0.12558159320629603           0.8101603753176353 0.05329137897593328          1.0000   
         H         H         1.0       0.1093971247270289  0.8158121145309895  0.11028531549188436          1.0000   
         H         H         1.0       0.12890492117560592           0.7810071007179503 0.10647979449276135          1.0000   
         H         H         1.0       0.1503734022543628  0.8143572469321896  0.058877717269329555         1.0000   
         H         H         1.0       0.11404899030988136           0.8324716858989025 0.0462887692159375 1.0000   
         C         C         1.0       0.61379700627309    0.8111881748717515  0.34368847144045167          1.0000   
         C         C         1.0       0.2006977617708099  0.5254820668989942  0.33907627715114047          1.0000   
         H         H         1.0       0.1990110437576853  0.9949785476340716  0.3731014240147221 1.0000   
         H         H         1.0       0.5544479318430814  0.14871875874442897           0.3227624924059184 1.0000   
         H         H         1.0       0.21199342890786532           0.5221626914400762 0.36638328689553396          1.0000   
         H         H         1.0       0.20442234229554468           0.5014635933461908 0.3270237500114916 1.0000   
         C         C         1.0       0.05541388118075208           0.7908429372903986 0.19024934753707848          1.0000   
         C         C         1.0       0.03888573636897985           0.8204251020349916 0.20815771111918477          1.0000   
         H         H         1.0       0.04442649201024529           0.7659720593348536 0.19757415505666281          1.0000   
         H         H         1.0       0.05349033126848912           0.7900176201284467 0.1594893703196134 1.0000   
         H         H         1.0       0.049830611883913356          0.84063142408842   0.19543419472462326          1.0000   
         H         H         1.0       0.04565210369333683           0.820640995654102  0.2382868880705805 1.0000   
         C         C         1.0       0.6579469964671188  0.8306169737098142  0.20253768613616868          1.0000   
         C         C         1.0       0.6723795532046365  0.8452976262854176  0.2398915603190985 1.0000   
         H         H         1.0       0.6753050190819819  0.8371120434904865  0.18122647214800214          1.0000   
         H         H         1.0       0.6358654728479424  0.845024772256054   0.19628387958207202          1.0000   
         H         H         1.0       0.6492250472020974  0.8431565936668044  0.25805031760870456          1.0000   
         H         H         1.0       0.6914969673370955  0.828648635435186   0.24716100327036217          1.0000   
         C         C         1.0       0.7345096622519611  0.14985155092884028           0.346491747789937  1.0000   
         C         C         1.0       0.7503160145450245  0.6548736767017526  0.4871446261855803 1.0000   
         H         H         1.0       0.7109160084347643  0.14112446478211682           0.3384465063705485 1.0000   
         H         H         1.0       0.7822146640242512  0.6957619577759357  0.5047157187995199 1.0000   
         H         H         1.0       0.7312215280162561  0.6604938749874638  0.5096103740304799 1.0000   
         H         H         1.0       0.7546016320000244  0.629621383588266   0.4851929149219417 1.0000   
         C         C         1.0       0.6667106762790787  0.6464287781580731  0.03492562584998704          1.0000   
         C         C         1.0       0.6671912577746516  0.6234097863493848  0.06850479550926747          1.0000   
         H         H         1.0       0.25973543735329163           0.8000598524928159 0.06043207455982502          1.0000   
         H         H         1.0       0.2233228002468104  0.8157852779522071  0.07793648621559135          1.0000   
         H         H         1.0       0.2743914052574936  0.8281502557902112  0.1142843926121262 1.0000   
         H         H         1.0       0.650012364959315   0.6028505257571509  0.061408198710872774         1.0000   
         C         C         1.0       0.9457610165810146  0.8106598798541862  0.6537451652931501 1.0000   
         C         C         1.0       0.9229829303793085  0.8307994968002049  0.6812893772258874 1.0000   
         H         H         1.0       0.9611853614556678  0.8292215619754998  0.6365741854003052 1.0000   
         H         H         1.0       0.9305796111938999  0.7996345300351091  0.6316232960155215 1.0000   
         H         H         1.0       0.9359144242384086  0.8486071009527604  0.6972188184689356 1.0000   
         H         H         1.0       0.9147800895900594  0.8147055354574139  0.7044154486228127 1.0000   
         C         C         1.0       0.880815754553992   0.7376293623217983  0.3673497867387071 1.0000   
         C         C         1.0       0.8607812243970221  0.7360300212725569  0.32883012209177104          1.0000   
         H         H         1.0       0.9084932322091549  0.7405417027514762  0.3616042173205346 1.0000   
         H         H         1.0       0.8823234269001327  0.71429663524663    0.3833058434735767 1.0000   
         H         H         1.0       0.8678167231209247  0.717928282953162   0.3087759064957426 1.0000   
         H         H         1.0       0.861770368413562   0.7608348925344474  0.314466239233952  1.0000   
         C         C         1.0       0.07160521819703836           0.8596656105354178 0.43934755634849565          1.0000   
         C         C         1.0       0.04441952620365197           0.8726435354371549 0.41164113376828887          1.0000   
         H         H         1.0       0.6791117107493192  0.8538553834351025  0.3730871610653639 1.0000   
         H         H         1.0       0.07626156245179705           0.8326796954101711 0.4375188826744475 1.0000   
         H         H         1.0       0.021247250493606762          0.8624241704023397 0.4208855336516645 1.0000   
         H         H         1.0       0.04752644348849544           0.8603448500084597 0.384620132067402  1.0000   
         C         C         1.0       0.8119795075248699  0.02898655875232925           0.5900351206381413 1.0000   
         C         C         1.0       0.830265819534315   0.04272774312695282           0.5583165379089191 1.0000   
         H         H         1.0       0.7856361480377159  0.03521598826318173           0.5848594741520161 1.0000   
         H         H         1.0       0.8206404709938862  0.04260650652082787           0.6159656035752171 1.0000   
         H         H         1.0       0.8215090646762951  0.06970134966125086           0.5554132274684769 1.0000   
         H         H         1.0       0.8224109901396396  0.03119126897334401           0.530337819516519  1.0000   
         C         C         1.0       0.8966031514001305  0.9884850279292601  0.4627578645045555 1.0000   
         C         C         1.0       0.8804163680444634  0.9681130692452374  0.4923986288537922 1.0000   
         H         H         1.0       0.9222953905014454  0.9792922678921272  0.4564509935885839 1.0000   
         H         H         1.0       0.9035198018420586  0.01122036679103977           0.4772000347452498 1.0000   
         H         H         1.0       0.8609144069589348  0.9841363467372409  0.503619250742743  1.0000   
         H         H         1.0       0.8957539374068006  0.9641015243820394  0.5176097827326238 1.0000   
         C         C         1.0       0.0691519541150667  0.0623052787170324  0.9219593666372681 1.0000   
         C         C         1.0       0.0625332117912687  0.09880273308976584           0.9315378327711318 1.0000   
         H         H         1.0       0.6417768156257787  0.9226536571077848  0.010141923920756746         1.0000   
         H         H         1.0       0.6630923057013168  0.9513491457780754  0.9813496323584648 1.0000   
         H         H         1.0       0.0441880367032117  0.10884647182131313           0.9138216376391695 1.0000   
         H         H         1.0       0.051604726640626764          0.09816263574219986          0.9592715073969247 1.0000   
         C         C         1.0       0.9963548810982236  0.8783653980876353  0.5831247164380244 1.0000   
         C         C         1.0       0.014066732792495706          0.8975277677462371 0.5540404748352646 1.0000   
         H         H         1.0       0.0007922997719236324         0.8523835206993315 0.5794213982684974 1.0000   
         H         H         1.0       0.9699269341894762  0.8795854858809796  0.5753179464891995 1.0000   
         H         H         1.0       0.006901650779915558          0.886446753687765  0.525961148536155  1.0000   
         H         H         1.0       0.03933336428428702           0.8885184807146126 0.55456578249981   1.0000   
         C         C         1.0       0.810798506371376   0.6326229374420306  0.7492084063795797 1.0000   
         C         C         1.0       0.847220590311545   0.03649597946961958           0.8823596820883445 1.0000   
         H         H         1.0       0.8026974423856744  0.6110999724115735  0.7667180712671702 1.0000   
         H         H         1.0       0.7867372334964905  0.6411754368432171  0.7426328057413754 1.0000   
         H         H         1.0       0.8330194580610062  0.0441916810805425  0.8567859149160902 1.0000   
         H         H         1.0       0.8313176452357182  0.020486455606713028         0.8961017166398249 1.0000   
         C         C         1.0       0.09349604752756924           0.8324611373014152 0.8408573856936484 1.0000   
         C         C         1.0       0.11833168620793089           0.8046251349402638 0.830039256490041  1.0000   
         H         H         1.0       0.10325433919533555           0.8461962074249839 0.8648316161285645 1.0000   
         H         H         1.0       0.07234437982735709           0.8189360202746434 0.8530001734924056 1.0000   
         H         H         1.0       0.12885562424488528           0.7937741690987014 0.8552159399244562 1.0000   
         H         H         1.0       0.1381600712921014  0.8173038122802678  0.81445715080097   1.0000   
         C         C         1.0       0.6637431689131915  0.9001937372313353  0.6717772328094906 1.0000   
         C         C         1.0       0.6836641664704304  0.8680775845584427  0.6793168590779673 1.0000   
         H         H         1.0       0.6622749712691275  0.9031292911354618  0.6422129293479951 1.0000   
         H         H         1.0       0.6766504468226412  0.9244453699801015  0.6812485941211431 1.0000   
         H         H         1.0       0.6685332626813312  0.8469792718949641  0.67006031331241   1.0000   
         H         H         1.0       0.6832558029605714  0.8624432860298298  0.7096179626872526 1.0000   
         C         C         1.0       0.9680060191975545  0.8045298122955825  0.9034827454319705 1.0000   
         C         C         1.0       0.983358077407541   0.8379838993163525  0.9169314626040064 1.0000   
         H         H         1.0       0.9797798173358891  0.7941205462826413  0.8776364305785918 1.0000   
         H         H         1.0       0.941774500760079   0.8096797184404939  0.8944615441167314 1.0000   
         H         H         1.0       0.009864058228936878          0.8331863005575353 0.9232822816147774 1.0000   
         H         H         1.0       0.9737681064442463  0.8421447114425646  0.9466981634187848 1.0000

