data_0
_chemical_formula_sum                   'C1600 H1280'
_cell_length_a                          50.66403296766987
_cell_length_b                          50.54461914417038
_cell_length_c                          44.923670803310046
_cell_angle_alpha                       90.26300747382454
_cell_angle_beta                        90.93440053171989
_cell_angle_gamma                       89.45388133564143
_space_group_name_H-M_alt               'P 1'
_space_group_IT_number                  1
loop_
  _space_group_symop_operation_xyz
         'x, y, z' 
loop_
  _atom_site_type_symbol
  _atom_site_label
  _atom_site_symmetry_multiplicity
  _atom_site_fract_x
  _atom_site_fract_y
  _atom_site_fract_z
  _atom_site_occupancy
         C         C         1.0       0.4391461609112255  0.39901464438642964           0.5197849247052251 1.0000   
         C         C         1.0       0.4286208590201416  0.3739488565419276  0.5152565675595756 1.0000   
         C         C         1.0       0.4266608678155019  0.35646930584678127           0.5381349530009782 1.0000   
         C         C         1.0       0.427740711178555   0.3649626184344541  0.5670403426496881 1.0000   
         C         C         1.0       0.4358518838826418  0.39151431798853853           0.5712336104556931 1.0000   
         C         C         1.0       0.4430773023134186  0.40814000109760523           0.5487635165317051 1.0000   
         H         H         1.0       0.42764218039718527           0.3657298359251233 0.49259989063704035          1.0000   
         H         H         1.0       0.4218118175027     0.3364224114769472  0.5342254421135444 1.0000   
         H         H         1.0       0.44022391186339077           0.39990137144902377          0.5938328455210671 1.0000   
         H         H         1.0       0.4518728861288399  0.42739240075683166           0.5531863083694183 1.0000   
         C         C         1.0       0.4814917892679296  0.3534726090122704  0.5928949790182323 1.0000   
         C         C         1.0       0.4606943402630346  0.33641235830816685           0.5872884409987293 1.0000   
         C         C         1.0       0.46686557648272875           0.3147672200550479 0.5691133219109212 1.0000   
         C         C         1.0       0.49251941680930794           0.308768587149147  0.5608963458498124 1.0000   
         C         C         1.0       0.012268184413070126          0.3344378103162959 0.5708808877338173 1.0000   
         C         C         1.0       0.007488907212358065          0.3596343420257188 0.5834560093049342 1.0000   
         C         C         1.0       0.43137226165470643           0.3454426569253176 0.593410422429322  1.0000   
         C         C         1.0       0.4102929270570597  0.3222848486834705  0.5931251498375507 1.0000   
         C         C         1.0       0.4174348614566648  0.29828006230227627           0.6074024698777262 1.0000   
         C         C         1.0       0.39846320700438026           0.27866212961027514          0.6097113242879376 1.0000   
         C         C         1.0       0.3731443161091674  0.280875339848508   0.5967389041665546 1.0000   
         C         C         1.0       0.36821566860303756           0.30385423970398023          0.5808251119433896 1.0000   
         C         C         1.0       0.38540009131205905           0.3240435538220461 0.5787799005859027 1.0000   
         C         C         1.0       0.44392778538659705           0.35747738574765986          0.64809562539774   1.0000   
         C         C         1.0       0.4376400595578271  0.3673563360100726  0.6756267124036232 1.0000   
         C         C         1.0       0.4156204806562963  0.38088891536935876           0.6820625533126694 1.0000   
         C         C         1.0       0.3974959265999086  0.38262097414451346           0.6586556997629068 1.0000   
         C         C         1.0       0.4026171152311806  0.37157836072983547           0.6303075756950981 1.0000   
         C         C         1.0       0.4262859324294252  0.35852816065541127           0.6253606183426457 1.0000   
         C         C         1.0       0.4101194614433713  0.39374773668890317           0.7142971492713046 1.0000   
         C         C         1.0       0.3745218155497445  0.33238796513195756           0.768359576506558  1.0000   
         C         C         1.0       0.4010030766857447  0.3319283367258457  0.761749928975793  1.0000   
         C         C         1.0       0.41128050483294065           0.350321237005396  0.7432202230146212 1.0000   
         C         C         1.0       0.39570807029758837           0.3695762553664424 0.7301422106742763 1.0000   
         C         C         1.0       0.3690382242069126  0.36651327246039583           0.7332456316214996 1.0000   
         C         C         1.0       0.3582595633436107  0.3488054210758447  0.752455192618196  1.0000   
         C         C         1.0       0.3947144920984742  0.4211974913228962  0.7140846370203777 1.0000   
         C         C         1.0       0.3975563504440128  0.43949072332112815           0.6919748452237584 1.0000   
         C         C         1.0       0.3855682089437552  0.46408603350588284           0.6938245236508686 1.0000   
         C         C         1.0       0.3712700806925056  0.47129526469854915           0.7177320368082029 1.0000   
         C         C         1.0       0.3670104234818682  0.452588426806907   0.7380283677403374 1.0000   
         C         C         1.0       0.3789566894787485  0.4284639627433467  0.7377925688387919 1.0000   
         C         C         1.0       0.43621287257492    0.40362368499661433           0.7652748296109444 1.0000   
         C         C         1.0       0.4555438190144204  0.4160974886547771  0.7803809671785792 1.0000   
         C         C         1.0       0.47465576030157497           0.42899928647804475          0.7660161688755786 1.0000   
         C         C         1.0       0.47552802314685194           0.42823828460090496          0.7348978347874477 1.0000   
         C         C         1.0       0.45678389093156896           0.4151172466043656 0.7191610373587641 1.0000   
         C         C         1.0       0.4356158839889653  0.4031104590919092  0.7336594249205082 1.0000   
         H         H         1.0       0.4806884229946141  0.3705778398603088  0.6089550262779115 1.0000   
         H         H         1.0       0.4517707680223426  0.301249464343126   0.5623675926597106 1.0000   
         H         H         1.0       0.9942058070103038  0.2971575131919725  0.5566733845649701 1.0000   
         H         H         1.0       0.02358550850458777           0.3726512412530149 0.5834959430291788 1.0000   
         H         H         1.0       0.43718954316122005           0.2928403039282395 0.6151557693856231 1.0000   
         H         H         1.0       0.40428938237202017           0.26053443917716235          0.6211203638563185 1.0000   
         H         H         1.0       0.3504926713669696  0.3066853157813247  0.5681676544184772 1.0000   
         H         H         1.0       0.38060724805727364           0.3403830812188565 0.562915335719158  1.0000   
         H         H         1.0       0.46286147896649893           0.34613882189240963          0.6452730445700575 1.0000   
         H         H         1.0       0.45231754040005734           0.3642348980738627 0.6933442929027601 1.0000   
         H         H         1.0       0.37843126691933154           0.39125461022119495          0.662887270642932  1.0000   
         H         H         1.0       0.388082310118883   0.37257596806644394           0.613336417795973  1.0000   
         H         H         1.0       0.4149318885632468  0.3184299295474558  0.7751860462622353 1.0000   
         H         H         1.0       0.43223641023668485           0.3487647302302557 0.7436662850857875 1.0000   
         H         H         1.0       0.3550651425208789  0.38168527917097933           0.7252678657820149 1.0000   
         H         H         1.0       0.33665723929965635           0.3461175561972327 0.753938163641275  1.0000   
         H         H         1.0       0.41038640949550764           0.4340539848817341 0.6725330890018093 1.0000   
         H         H         1.0       0.38730771415596904           0.4769521939817369 0.6752007342510813 1.0000   
         H         H         1.0       0.35474357453872774           0.4592836780026337 0.7559396641365441 1.0000   
         H         H         1.0       0.3740648371533629  0.41547213865567484           0.7551233069985123 1.0000   
         H         H         1.0       0.4195046324708507  0.3958139105914834  0.7772978003125995 1.0000   
         H         H         1.0       0.456142749945266   0.41724718440361186           0.8045942441777538 1.0000   
         H         H         1.0       0.491742601106191   0.4354594560814703  0.7234955963671892 1.0000   
         H         H         1.0       0.4587941310076266  0.4148577775821421  0.6952454132323691 1.0000   
         C         C         1.0       0.13681579580714795           0.2969670316885373 0.2799265076305766 1.0000   
         C         C         1.0       0.1194383170240719  0.31743996757345905           0.2840685591171871 1.0000   
         C         C         1.0       0.09790630863684464           0.3146911316181051 0.3022995114354741 1.0000   
         C         C         1.0       0.09342538345707159           0.2908667405243134 0.3174664565730605 1.0000   
         C         C         1.0       0.11034114023758973           0.2698940236973381 0.31218212701933234          1.0000   
         C         C         1.0       0.1321462900134398  0.27399012690220964           0.2951762352249336 1.0000   
         H         H         1.0       0.12246488343007639           0.33648593504073293          0.27486759110251174          1.0000   
         H         H         1.0       0.08636121284230627           0.33176590556610214          0.3094399498056594 1.0000   
         H         H         1.0       0.10919067877960131           0.25222450162010285          0.3255963709136786 1.0000   
         H         H         1.0       0.14717136075162493           0.2586642407346921 0.2912722341585845 1.0000   
         C         C         1.0       0.05553538908735698           0.24333090323956383          0.31852300799118893          1.0000   
         C         C         1.0       0.05885950573047178           0.259115072370454  0.34383114316158936          1.0000   
         C         C         1.0       0.045964855458751494          0.2522469369845678 0.3690397584558781 1.0000   
         C         C         1.0       0.03319512321500276           0.2280341550971221 0.3716791326786431 1.0000   
         C         C         1.0       0.03228421595165572           0.21108436091493266          0.3470669682941859 1.0000   
         C         C         1.0       0.04268605928949799           0.2188388919099346 0.320254479175873  1.0000   
         C         C         1.0       0.07309734085235867           0.2879351394786503 0.3433532825433562 1.0000   
         C         C         1.0       0.047507241521389944          0.30537389683897914          0.336572299747431  1.0000   
         C         C         1.0       0.033532497067257805          0.31721130662445407          0.3592036668831663 1.0000   
         C         C         1.0       0.011810983558392165          0.33319555239913906          0.3535110638016289 1.0000   
         C         C         1.0       0.0014121309186674094         0.3354444849901358 0.32592980381926073          1.0000   
         C         C         1.0       0.014047847782253126          0.3229914827334166 0.3039687202029609 1.0000   
         C         C         1.0       0.03570786251219929           0.30714658301852843          0.3087206107008151 1.0000   
         C         C         1.0       0.10427281645867009           0.2776899806995229 0.38690348827370014          1.0000   
         C         C         1.0       0.11918667255785403           0.283525192212692  0.41271116692074394          1.0000   
         C         C         1.0       0.12033949387977307           0.3098918136606102 0.42220489502070285          1.0000   
         C         C         1.0       0.10748207349441198           0.32852503785990855          0.4044895314560156 1.0000   
         C         C         1.0       0.09178141424077085           0.32209284614979516          0.38060933907531896          1.0000   
         C         C         1.0       0.08962773429731165           0.2963872976524366 0.37183235744511584          1.0000   
         C         C         1.0       0.13301708834572906           0.3201570168417931 0.4531590598468528 1.0000   
         C         C         1.0       0.06187979106194904           0.32656086578820903          0.5047968587380964 1.0000   
         C         C         1.0       0.07184151088280365           0.301996656427571  0.4966736391342734 1.0000   
         C         C         1.0       0.09553899603060462           0.300826928247342  0.480577529838344  1.0000   
         C         C         1.0       0.10753475415898783           0.3236939720470853 0.47127862611128984          1.0000   
         C         C         1.0       0.09643458470911037           0.34742925957337556          0.47965811037655814          1.0000   
         C         C         1.0       0.07434403602108645           0.3485341780618973 0.4953281959280268 1.0000   
         C         C         1.0       0.1529658086651419  0.34370707052683375           0.4496593928500524 1.0000   
         C         C         1.0       0.16754706757183818           0.34657689062718644          0.42359082346006394          1.0000   
         C         C         1.0       0.18649175204901272           0.36569977026346945          0.4233454641166589 1.0000   
         C         C         1.0       0.19281362944923913           0.38076170914839536          0.44736239069195566          1.0000   
         C         C         1.0       0.1784357842191164  0.37791506921869233           0.4732589873206327 1.0000   
         C         C         1.0       0.1581364152643782  0.3600215714568228  0.4734340210145014 1.0000   
         C         C         1.0       0.15435238665221848           0.29722055818717724          0.5017622494715293 1.0000   
         C         C         1.0       0.1710747531867249  0.278429531755192   0.5149094977507117 1.0000   
         C         C         1.0       0.18690812333912604           0.262034146518665  0.4982820256348016 1.0000   
         C         C         1.0       0.1892758864384009  0.26712818398616395           0.46892535224238874          1.0000   
         C         C         1.0       0.17085072551433217           0.2842292045746479 0.4555040124238492 1.0000   
         C         C         1.0       0.15322073294727417           0.30006765622323506          0.47156876587198454          1.0000   
         H         H         1.0       0.06350494646912848           0.24892187028360357          0.2984533829155665 1.0000   
         H         H         1.0       0.04777565629212439           0.26557141808264556          0.38700879521517756          1.0000   
         H         H         1.0       0.023972544361888063          0.2231990549693315 0.39314167624714746          1.0000   
         H         H         1.0       0.03931286814774904           0.20780009963843069          0.29948759265426284          1.0000   
         H         H         1.0       0.039849619121444815          0.31643637147262793          0.3819394592261213 1.0000   
         H         H         1.0       0.002107022570267877          0.34262309627521476          0.3732855305312922 1.0000   
         H         H         1.0       0.007422998690409681          0.3223530412268803 0.28076649947171317          1.0000   
         H         H         1.0       0.04296844952141846           0.2967645055521822 0.2895336979536422 1.0000   
         H         H         1.0       0.10471372674337937           0.25675004674095075          0.38043464325197995          1.0000   
         H         H         1.0       0.12786509360393894           0.26678533638209645          0.4245711211600153 1.0000   
         H         H         1.0       0.10801407871855842           0.34816748377105994          0.41175876189838145          1.0000   
         H         H         1.0       0.08289438797911254           0.3374977310369974 0.36632054471546577          1.0000   
         H         H         1.0       0.06326525407923224           0.2838441872430689 0.5053914430544868 1.0000   
         H         H         1.0       0.10368848719207395           0.2810436049351844 0.4782436219134817 1.0000   
         H         H         1.0       0.10685819904349046           0.3651225663719179 0.4748513648478039 1.0000   
         H         H         1.0       0.06730073434729171           0.3687092892186067 0.5018924910644618 1.0000   
         H         H         1.0       0.16552759477367673           0.3315243666728292 0.40723302876362955          1.0000   
         H         H         1.0       0.20152425274205843           0.3651097731206629 0.4060970904010854 1.0000   
         H         H         1.0       0.1839372228317268  0.3880088309579121  0.4947761141316853 1.0000   
         H         H         1.0       0.1467056361962683  0.355235211983584   0.492910748667304  1.0000   
         H         H         1.0       0.14108272591698198           0.30903754499277614          0.5153316661059366 1.0000   
         H         H         1.0       0.16896491119194482           0.27723957285737294          0.5379033500191608 1.0000   
         H         H         1.0       0.20154933251018478           0.25410711887232207          0.45458614319186474          1.0000   
         H         H         1.0       0.17134944243103592           0.28708267160348017          0.4316536207516703 1.0000   
         C         C         1.0       0.059421174600127705          0.12399686676173992          0.05427181027540947          1.0000   
         C         C         1.0       0.05610526925664985           0.11075710534896756          0.08061724048372196          1.0000   
         C         C         1.0       0.04505116066638372           0.1233769091772837 0.10417240903191234          1.0000   
         C         C         1.0       0.03953392504486684           0.15063482968690853          0.10258165111770821          1.0000   
         C         C         1.0       0.042409224635389986          0.16394557947244423          0.07655807949513795          1.0000   
         C         C         1.0       0.05254998384489766           0.15069813272015034          0.05282890242240247          1.0000   
         H         H         1.0       0.0568672616316027  0.09050521768779933           0.08018398701290727          1.0000   
         H         H         1.0       0.04053636241390327           0.11229999827301988          0.12374285224461465          1.0000   
         H         H         1.0       0.034896369787600696          0.1851267513392291 0.07418541599799758          1.0000   
         H         H         1.0       0.05399731275765056           0.1624161791941536 0.03277601761965884          1.0000   
         C         C         1.0       0.4768422001241513  0.13102446283474314           0.12282993108811203          1.0000   
         C         C         1.0       0.49016325841588915           0.1543094404087522 0.11937132651792785          1.0000   
         C         C         1.0       0.47704077274296974           0.1776755931009565 0.10979073367785137          1.0000   
         C         C         1.0       0.4520332251997315  0.17610621005706245           0.10113597598545454          1.0000   
         C         C         1.0       0.43870047418606284           0.15176081699185182          0.10224876361856731          1.0000   
         C         C         1.0       0.4505938230921184  0.12976338178632738           0.11406631312744843          1.0000   
         C         C         1.0       0.02770307958836075           0.16686458251187292          0.1297260966071237 1.0000   
         C         C         1.0       0.03750227059087849           0.19614270764927969          0.1357176199902167 1.0000   
         C         C         1.0       0.022367904188011604          0.2147113937372562 0.14965532839987544          1.0000   
         C         C         1.0       0.03085174388653334           0.2405828131746085 0.1522445740179223 1.0000   
         C         C         1.0       0.05590426482795501           0.2476654533667342 0.14349083100656393          1.0000   
         C         C         1.0       0.07002919318083653           0.22912681453722425          0.12814897599638045          1.0000   
         C         C         1.0       0.061577049360937566          0.2039859446129986 0.12607007555219876          1.0000   
         C         C         1.0       0.02008314382980939           0.14841479255088338          0.1842388492511419 1.0000   
         C         C         1.0       0.028919898775212564          0.13516497876699962          0.20942798988326525          1.0000   
         C         C         1.0       0.05468007651859285           0.1247796728280024 0.21129968618553327          1.0000   
         C         C         1.0       0.07185547490006661           0.13418906640846326          0.19063033459992829          1.0000   
         C         C         1.0       0.06433211158372794           0.14936018584899197          0.1671140022694709 1.0000   
         C         C         1.0       0.037986568573050314          0.1543305376425219 0.16174063029186658          1.0000   
         C         C         1.0       0.0613353712300706  0.10335158775093203           0.23746915082497058          1.0000   
         C         C         1.0       0.04711983454544191           0.14972868069811895          0.3184725505675634 1.0000   
         C         C         1.0       0.026721170028271072          0.13444624925381912          0.30665176724483   1.0000   
         C         C         1.0       0.03168530349776193           0.1208342786401646 0.2803369136961542 1.0000   
         C         C         1.0       0.05682919046972252           0.12098847494915618          0.266742407703372  1.0000   
         C         C         1.0       0.07549088438728752           0.13842562095623584          0.2801913888022476 1.0000   
         C         C         1.0       0.07100519976340906           0.15202571101910245          0.30540715665371865          1.0000   
         C         C         1.0       0.08914423687635852           0.08988944151258374          0.23312477904547071          1.0000   
         C         C         1.0       0.09470850630384779           0.07659347909655961          0.20751068832780728          1.0000   
         C         C         1.0       0.11546336011157178           0.06010990816239499          0.20343884234147463          1.0000   
         C         C         1.0       0.13137861101507592           0.05527808260890493          0.2278201242005296 1.0000   
         C         C         1.0       0.12515473728804533           0.06419179375349235          0.25545689746500694          1.0000   
         C         C         1.0       0.10521843763388992           0.08274974711132789          0.2582936264189626 1.0000   
         C         C         1.0       0.04369840523116271           0.06209771262418195          0.26319148750039345          1.0000   
         C         C         1.0       0.025946106338473617          0.044271794401480755         0.26934796437758984          1.0000   
         C         C         1.0       0.006851408245252081          0.0384984164395076 0.2488264630322258 1.0000   
         C         C         1.0       0.00623425749789897           0.0520013080827987 0.2214575824697139 1.0000   
         C         C         1.0       0.023694728988764468          0.07183990895584985          0.21710236425921633          1.0000   
         C         C         1.0       0.04264468640859456           0.07796629975572242          0.23800613652777527          1.0000   
         H         H         1.0       0.48671858557860415           0.11286064499804516          0.12663813081193084          1.0000   
         H         H         1.0       0.486818292820613   0.19721953562623348           0.10923284182102301          1.0000   
         H         H         1.0       0.44236833550084836           0.19206890337869179          0.0896878323217715 1.0000   
         H         H         1.0       0.44095828222059774           0.11013204981376011          0.11427124288955637          1.0000   
         H         H         1.0       0.003991235197835021          0.2102616569882522 0.15856387137349665          1.0000   
         H         H         1.0       0.017861845927319545          0.25464532321808253          0.16345539296062034          1.0000   
         H         H         1.0       0.0898837949252635  0.23420013419966113           0.12092821010514422          1.0000   
         H         H         1.0       0.07551820543631525           0.19212598254044083          0.1169449564079882 1.0000   
         H         H         1.0       0.49937633260977426           0.1369071069892663 0.1798976678126246 1.0000   
         H         H         1.0       0.01310288185015434           0.1301447347904717 0.2244638980155475 1.0000   
         H         H         1.0       0.0926449767587611  0.12721285421739495           0.19230301980605694          1.0000   
         H         H         1.0       0.0776444076686507  0.15757547968578128           0.15045437897727545          1.0000   
         H         H         1.0       0.007388798940334513          0.1340910356654599 0.31609467765851396          1.0000   
         H         H         1.0       0.015268852497242285          0.11118475961748536          0.26904970556459906          1.0000   
         H         H         1.0       0.09546993369990239           0.1412310573516058 0.27222738568062155          1.0000   
         H         H         1.0       0.08768027669683925           0.16283431989337452          0.3169891732057696 1.0000   
         H         H         1.0       0.08261102413825072           0.07914106687588855          0.18682518489334046          1.0000   
         H         H         1.0       0.11764689893440976           0.05047518050857337          0.18056707674935213          1.0000   
         H         H         1.0       0.135859505992779   0.05722001752362568           0.27445509084356545          1.0000   
         H         H         1.0       0.10038754379058797           0.08914480910637722          0.28104146949230124          1.0000   
         H         H         1.0       0.05972494932835079           0.06733841812021597          0.27860966173573964          1.0000   
         H         H         1.0       0.02945496718918078           0.0321132074927052 0.2904617929204183 1.0000   
         H         H         1.0       0.990007756002899   0.04680752445425988           0.20547648189782428          1.0000   
         H         H         1.0       0.020224248232763933          0.08512140685878523          0.19812888693410552          1.0000   
         C         C         1.0       0.3160272192209119  0.19285278700474998           0.7981889802761665 1.0000   
         C         C         1.0       0.3421826492965974  0.19392229679276696           0.7926138502622934 1.0000   
         C         C         1.0       0.36060864099091466           0.1988468365026351 0.8141969993115086 1.0000   
         C         C         1.0       0.3514923723155145  0.2043901163879781  0.8433816758393495 1.0000   
         C         C         1.0       0.32426445772901824           0.2044201773334935 0.8486571259595912 1.0000   
         C         C         1.0       0.3071029782116888  0.19759024809036457           0.8266111505110327 1.0000   
         H         H         1.0       0.34742822830855313           0.1908293530380291 0.7705276335764111 1.0000   
         H         H         1.0       0.3812123524354876  0.19985105332565362           0.8080472054374    1.0000   
         H         H         1.0       0.3167315566233219  0.20845555969474683           0.8701527481261345 1.0000   
         H         H         1.0       0.2861541519517686  0.19420978307243164           0.8292390272764678 1.0000   
         C         C         1.0       0.35238832100910006           0.2581235496422488 0.8699685955957491 1.0000   
         C         C         1.0       0.37306169955461704           0.2407809124949101 0.8635036889562512 1.0000   
         C         C         1.0       0.3936694294473607  0.2507479035029561  0.8458954578798512 1.0000   
         C         C         1.0       0.3920703452675546  0.27617240813581395           0.8356735573976338 1.0000   
         C         C         1.0       0.370211390805938   0.292770974994251   0.8391648725166027 1.0000   
         C         C         1.0       0.3507202687768825  0.28399427750952383           0.8577256929140838 1.0000   
         C         C         1.0       0.37260080501159126           0.21059379003568307          0.8701207712704729 1.0000   
         C         C         1.0       0.39883356297824657           0.19325564680071608          0.8684700913048875 1.0000   
         C         C         1.0       0.4211472986004146  0.20170850752396122           0.8838681150968696 1.0000   
         C         C         1.0       0.44445409716556755           0.18842626866467832          0.8820737037968776 1.0000   
         C         C         1.0       0.4450960479731283  0.16366927108836643           0.869372726391101  1.0000   
         C         C         1.0       0.42260687121903157           0.15367958507482996          0.8557113770212604 1.0000   
         C         C         1.0       0.39994137753810166           0.1679076921827474 0.8566869988104416 1.0000   
         C         C         1.0       0.3621030011650875  0.21834791067685094           0.9275715636650071 1.0000   
         C         C         1.0       0.3481597240828894  0.21255641195588212           0.9521902416890922 1.0000   
         C         C         1.0       0.33639138700935284           0.18755201551025744          0.9546648776167354 1.0000   
         C         C         1.0       0.3389962307504187  0.17002762255007037           0.9323896083879901 1.0000   
         C         C         1.0       0.3507057858637437  0.17653913592325599           0.9062263175395613 1.0000   
         C         C         1.0       0.3621933741546674  0.2019141626587049  0.9025273556657969 1.0000   
         C         C         1.0       0.3202660950256955  0.17974337274288246           0.9836587015192384 1.0000   
         C         C         1.0       0.3869963573070529  0.15000407710592942           0.03908292677065307          1.0000   
         C         C         1.0       0.38227738880318507           0.17642359365557966          0.03592241439490775          1.0000   
         C         C         1.0       0.360881476261857   0.18493574073698413           0.01908293168070466          1.0000   
         C         C         1.0       0.34420373444845287           0.16844888199809996          0.004197052092492104         1.0000   
         C         C         1.0       0.35084001096575934           0.14202235880252156          0.0038795397571702583        1.0000   
         C         C         1.0       0.37073113267482427           0.13251852150519763          0.024084483919019732         1.0000   
         C         C         1.0       0.29534725879484985           0.16238957570445178          0.9789712614811222 1.0000   
         C         C         1.0       0.2799026391908938  0.16524946250711997           0.9544772666629243 1.0000   
         C         C         1.0       0.2591446406441465  0.15016275582121055           0.950443213113191  1.0000   
         C         C         1.0       0.2500718574932293  0.13511768395089557           0.9730923701594846 1.0000   
         C         C         1.0       0.2635007453361508  0.1331309757135092  0.9992718582329616 1.0000   
         C         C         1.0       0.2863636763403381  0.14690615526533282           0.0027408339397107517        1.0000   
         C         C         1.0       0.30458014428627966           0.20552803636004946          0.03265777822586688          1.0000   
         C         C         1.0       0.290995608834773   0.22584430057654875           0.0471964815149878 1.0000   
         C         C         1.0       0.2779422674473459  0.2447941802896517  0.03099263629056309          1.0000   
         C         C         1.0       0.2790916553043176  0.24320627376647783           0.00018167014461223374       1.0000   
         C         C         1.0       0.2935177153377082  0.2244434468207111  0.9856899926703878 1.0000   
         C         C         1.0       0.3060253276068335  0.20387763502884385           0.001391840385742471         1.0000   
         H         H         1.0       0.33611313089268574           0.25109310874419033          0.8831463617184294 1.0000   
         H         H         1.0       0.4054346087648621  0.2359949452938553  0.8348185396858344 1.0000   
         H         H         1.0       0.40705386321033576           0.2804825708828828 0.821148357701937  1.0000   
         H         H         1.0       0.33340541209049895           0.29572418665947947          0.8602839282681493 1.0000   
         H         H         1.0       0.42094864523218056           0.2202273187278745 0.8955611449197194 1.0000   
         H         H         1.0       0.4622219311376907  0.19690708315195624           0.8919693246543141 1.0000   
         H         H         1.0       0.423344716883753   0.13259620995541935           0.8462859473739772 1.0000   
         H         H         1.0       0.3827641961663623  0.15857008263318564           0.8463848268175898 1.0000   
         H         H         1.0       0.3693553973801903  0.23886670165477045           0.9234882165460623 1.0000   
         H         H         1.0       0.34677737670656567           0.22815186060293594          0.9684024990591519 1.0000   
         H         H         1.0       0.3272472526295869  0.15322180880319997           0.9309118834842154 1.0000   
         H         H         1.0       0.34704631147775045           0.1635370426576981 0.8893296514413249 1.0000   
         H         H         1.0       0.3970786507047154  0.19116141325980973           0.04452420287447568          1.0000   
         H         H         1.0       0.3583420992730909  0.20631982073286817           0.018540302859175826         1.0000   
         H         H         1.0       0.3429812509902477  0.12859049506157866           0.9875320840108154 1.0000   
         H         H         1.0       0.37801990068989993           0.11304930202127347          0.02221328442656626          1.0000   
         H         H         1.0       0.28649985317514626           0.17669980823082726          0.9352753299947237 1.0000   
         H         H         1.0       0.24793208760700125           0.15075258318516818          0.930446215347013  1.0000   
         H         H         1.0       0.2553430189914742  0.1237115589321828  0.019037751960913212         1.0000   
         H         H         1.0       0.2962160102792935  0.14695089722907687           0.024591828508833156         1.0000   
         H         H         1.0       0.313789959483106   0.19036489983072838           0.04743622671793731          1.0000   
         H         H         1.0       0.29418480241207623           0.2265461326964745 0.07211334627178421          1.0000   
         H         H         1.0       0.2695252184434199  0.2601619238555641  0.9875022918589921 1.0000   
         H         H         1.0       0.2926756539614575  0.22454684486226736           0.9617651413538952 1.0000   
         C         C         1.0       0.0649410648414933  0.09767063560163725           0.9715471184188597 1.0000   
         C         C         1.0       0.08886637524256977           0.10664164890570035          0.9632878726162128 1.0000   
         C         C         1.0       0.10699389461318881           0.0898037258450665 0.9494923233981262 1.0000   
         C         C         1.0       0.10195804401477859           0.06330745823979048          0.9453795647281139 1.0000   
         C         C         1.0       0.07745661468065934           0.05401522217985433          0.9534044526017312 1.0000   
         C         C         1.0       0.05899104183041266           0.07084992086122911          0.9674159051884064 1.0000   
         H         H         1.0       0.09312611013656955           0.1280164498874931 0.9665453965059205 1.0000   
         H         H         1.0       0.12539286575655909           0.09823330647801688          0.9428213501642619 1.0000   
         H         H         1.0       0.07186031722716787           0.03384377373513193          0.9504607015958999 1.0000   
         H         H         1.0       0.04102177684926696           0.0625458887478357 0.9755520271959095 1.0000   
         C         C         1.0       0.12209105107403777           0.01111709334149221          0.9772743685338393 1.0000   
         C         C         1.0       0.1265798949959168  0.01533150967562326           0.9475157299906339 1.0000   
         C         C         1.0       0.13719312301172004           0.9940261933595548 0.9323551692981751 1.0000   
         C         C         1.0       0.1701104953848719  0.47785912880986864           0.9495836121394537 1.0000   
         C         C         1.0       0.16142334563274535           0.46822947531008485          0.9759155169453148 1.0000   
         C         C         1.0       0.14359873745865467           0.4824380025866897 0.9923679184740158 1.0000   
         C         C         1.0       0.12440075687879583           0.04384747995435103          0.9322548673637227 1.0000   
         C         C         1.0       0.15359679296113463           0.05454626738254171          0.9392651287355944 1.0000   
         C         C         1.0       0.1729631606050507  0.05446713314298097           0.9188795958328845 1.0000   
         C         C         1.0       0.1968721327316907  0.0657741330612811  0.9257610120963587 1.0000   
         C         C         1.0       0.20227539837999278           0.07787743127241797          0.9528898726055035 1.0000   
         C         C         1.0       0.1839822588918761  0.07412789804222707           0.9747605824526673 1.0000   
         C         C         1.0       0.16005952048453873           0.06281482779392492          0.9681704335962467 1.0000   
         C         C         1.0       0.09785892289717428           0.02655391246182874          0.8886509076896225 1.0000   
         C         C         1.0       0.08415105702485055           0.03266967176749895          0.8623090196970998 1.0000   
         C         C         1.0       0.08396663015286007           0.05707515987103064          0.8490771033765377 1.0000   
         C         C         1.0       0.1046933715340767  0.0727361841760198  0.8588510707879411 1.0000   
         C         C         1.0       0.11955659579751617           0.06745876779302576          0.8832772940100672 1.0000   
         C         C         1.0       0.11498011505008225           0.0449738329360345 0.8993726855481697 1.0000   
         C         C         1.0       0.06398706532327321           0.06847457504483052          0.8238466281748976 1.0000   
         C         C         1.0       0.11542236685742414           0.06670545511127425          0.7467539930947223 1.0000   
         C         C         1.0       0.10567131588991685           0.043647454837658715         0.7567577461306977 1.0000   
         C         C         1.0       0.09001329987779844           0.044551830460699035         0.7813113948576114 1.0000   
         C         C         1.0       0.08368797990212293           0.06736937767734259          0.7958058148724089 1.0000   
         C         C         1.0       0.09556674541347297           0.09032733592747287          0.7851516807317929 1.0000   
         C         C         1.0       0.11080103376720965           0.09065161151383377          0.7603936917685513 1.0000   
         C         C         1.0       0.04933093770632975           0.09506997260413255          0.8328105573254322 1.0000   
         C         C         1.0       0.042159842876131316          0.0956170116762329 0.8620019346115029 1.0000   
         C         C         1.0       0.02545426779769104           0.11567747159669495          0.8718910294357092 1.0000   
         C         C         1.0       0.01703369381072464           0.1342340056250987 0.852671178145055  1.0000   
         C         C         1.0       0.02392496233535403           0.13373364569918147          0.823278751383155  1.0000   
         C         C         1.0       0.04022618309420744           0.11420988854107311          0.8131528700996068 1.0000   
         C         C         1.0       0.028352318881088   0.05319153792051919           0.7843859537083288 1.0000   
         C         C         1.0       0.007425355009858985          0.03689314457923827          0.7763308845803527 1.0000   
         C         C         1.0       0.9957134444791822  0.020590385597404916         0.7968592653214751 1.0000   
         C         C         1.0       0.005180225944402609          0.020404461697579215         0.8249220593841124 1.0000   
         C         C         1.0       0.025426557261109928          0.03608462490315577          0.8330702212341867 1.0000   
         C         C         1.0       0.039526792675251464          0.05179563488069842          0.8133670483951352 1.0000   
         H         H         1.0       0.116010299873772   0.02668879126666959           0.991145864344504  1.0000   
         H         H         1.0       0.14368350825279502           0.9987191101283195 0.9099649122343275 1.0000   
         H         H         1.0       0.1851264713129039  0.4673732526090487  0.938650831970254  1.0000   
         H         H         1.0       0.13583744488229363           0.47553862282582593          0.013499089482042915         1.0000   
         H         H         1.0       0.16805148446143364           0.04539544955303008          0.8971190225823098 1.0000   
         H         H         1.0       0.21104309673481464           0.06568921978039119          0.9076082143463228 1.0000   
         H         H         1.0       0.1868320869698692  0.08139504940033288           0.9971583840876942 1.0000   
         H         H         1.0       0.14565434224840743           0.06193030927452091          0.9862591583091482 1.0000   
         H         H         1.0       0.09400719503536843           0.008451543924167347         0.8991116703289245 1.0000   
         H         H         1.0       0.0734327311124911  0.016396720149221534         0.8522496922032168 1.0000   
         H         H         1.0       0.10953174128955084           0.09025144072752483          0.8461727979638155 1.0000   
         H         H         1.0       0.13257191612461822           0.08182354385207789          0.8932959076082955 1.0000   
         H         H         1.0       0.10900321749760622           0.024671357773326883         0.7465335897025385 1.0000   
         H         H         1.0       0.07913242709999667           0.027004402869413857         0.7871943600828953 1.0000   
         H         H         1.0       0.0923948599589639  0.10965491234088182           0.7949886879118155 1.0000   
         H         H         1.0       0.11673702948955193           0.11057206501725195          0.7517077687387755 1.0000   
         H         H         1.0       0.047019257568850226          0.08014077495112196          0.8772376859867    1.0000   
         H         H         1.0       0.01963994565624429           0.11591756182184498          0.8932151191090668 1.0000   
         H         H         1.0       0.016788342426667855          0.1470909817017466 0.8080155819937551 1.0000   
         H         H         1.0       0.04228085220133672           0.11057698566406592          0.7899459952551069 1.0000   
         H         H         1.0       0.03349184180228257           0.06613344916770283          0.7662134238934362 1.0000   
         H         H         1.0       0.0030599909906530933         0.03602330040003851          0.7519485454861878 1.0000   
         H         H         1.0       0.9956354208087724  0.007156564441779276         0.8412262440762072 1.0000   
         H         H         1.0       0.030988087265403412          0.03733091429769788          0.8570084461000624 1.0000   
         C         C         1.0       0.2744431926917237  0.1401034806038679  0.759407989635824  1.0000   
         C         C         1.0       0.2933217275223911  0.12271505002090757           0.7502587909478199 1.0000   
         C         C         1.0       0.2893062562176241  0.10635605896986922           0.7270656045334026 1.0000   
         C         C         1.0       0.2654201526872416  0.10566216842491954           0.7126517559325285 1.0000   
         C         C         1.0       0.24700157835329486           0.1250790520394272 0.719259090359923  1.0000   
         C         C         1.0       0.2519886890811273  0.14279741908517635           0.742039730940888  1.0000   
         H         H         1.0       0.3107030287887789  0.12193271187580387           0.7641289427639054 1.0000   
         H         H         1.0       0.30428224700259415           0.09204432939074782          0.7219195504821074 1.0000   
         H         H         1.0       0.22857245502629917           0.12787087538787079          0.7094680821777751 1.0000   
         H         H         1.0       0.23784915259399284           0.1569558018468244 0.7487939339732511 1.0000   
         C         C         1.0       0.22010393552624427           0.06715881812746127          0.7206835648574927 1.0000   
         C         C         1.0       0.22808965462228517           0.07339287148450681          0.6921499236245786 1.0000   
         C         C         1.0       0.21146037852124805           0.06461624763432301          0.6708988983185322 1.0000   
         C         C         1.0       0.18655539494821602           0.05593299739076682          0.675370801094451  1.0000   
         C         C         1.0       0.1781916923074694  0.05412500876559708           0.7049877584977502 1.0000   
         C         C         1.0       0.19455584360149455           0.06011997224019533          0.7270932500139786 1.0000   
         C         C         1.0       0.25830378493784373           0.08455166760287611          0.6877262331456547 1.0000   
         C         C         1.0       0.27366554191542003           0.05718109474072269          0.691197608318268  1.0000   
         C         C         1.0       0.2793537953629717  0.043010159845364666         0.6660223260395676 1.0000   
         C         C         1.0       0.2941052242031913  0.020900827605220895         0.6668550366272317 1.0000   
         C         C         1.0       0.3034067530273177  0.01070316644384552           0.6941051467740453 1.0000   
         C         C         1.0       0.2964283068337078  0.02353922796059587           0.7191144521579947 1.0000   
         C         C         1.0       0.2814759375117628  0.046587633354331054         0.7188057261437749 1.0000   
         C         C         1.0       0.24341952273365847           0.11221487306927778          0.6410792487343494 1.0000   
         C         C         1.0       0.24896763462389146           0.12846780671656496          0.6182961246783261 1.0000   
         C         C         1.0       0.2745482171215963  0.13255030639908036           0.609357147249307  1.0000   
         C         C         1.0       0.29452240456193307           0.11969682542909421          0.6243675558205876 1.0000   
         C         C         1.0       0.2891444362957871  0.10427011049870086           0.6493862136936409 1.0000   
         C         C         1.0       0.26356920822227187           0.0995826566796478 0.6568932124704989 1.0000   
         C         C         1.0       0.28088899933209593           0.15007355423413732          0.5803630106003886 1.0000   
         C         C         1.0       0.29327036403505075           0.08264484846111977          0.5194187496669486 1.0000   
         C         C         1.0       0.2685764516632075  0.09135642833803383           0.5265272832214857 1.0000   
         C         C         1.0       0.26488668459910475           0.11229691923555789          0.5449746186110845 1.0000   
         C         C         1.0       0.2861652808627258  0.1251176542612032  0.5585411763525274 1.0000   
         C         C         1.0       0.31150480706583994           0.11415039366158161          0.5546128354659822 1.0000   
         C         C         1.0       0.3150794392982539  0.094073122060126   0.5336459082791746 1.0000   
         C         C         1.0       0.3049257221166408  0.17028108477800602           0.5855981108601007 1.0000   
         C         C         1.0       0.3082728940833243  0.1806731044041631  0.6138089284833959 1.0000   
         C         C         1.0       0.32857263720286656           0.19908125494045112          0.6192471430499723 1.0000   
         C         C         1.0       0.3412258405810339  0.21082172677957559           0.5956508450430599 1.0000   
         C         C         1.0       0.33672868552789376           0.20087288415180102          0.5672331128487869 1.0000   
         C         C         1.0       0.3202281656212055  0.1798068683331852  0.5625836145253108 1.0000   
         C         C         1.0       0.2579305173722455  0.17478282735529438           0.5350661239394491 1.0000   
         C         C         1.0       0.2384439098949417  0.1910203780898815  0.5223977499175666 1.0000   
         C         C         1.0       0.22207905633836791           0.20456373446169046          0.5399888861653475 1.0000   
         C         C         1.0       0.2245978055819834  0.20328843688201298           0.5698345087902237 1.0000   
         C         C         1.0       0.24378126207258446           0.18751660824659971          0.5832263439290193 1.0000   
         C         C         1.0       0.25922324954573744           0.16988773579726069          0.5657939617402431 1.0000   
         H         H         1.0       0.23114050841864062           0.07275449374531583          0.7407893853918652 1.0000   
         H         H         1.0       0.21772562526942515           0.06712242309287801          0.648548793691075  1.0000   
         H         H         1.0       0.17342650231134074           0.05137891212949065          0.6566996382055122 1.0000   
         H         H         1.0       0.19017392419894802           0.05486232610277035          0.7498241850638415 1.0000   
         H         H         1.0       0.2736790671161584  0.0467508767300219  0.6432714887825502 1.0000   
         H         H         1.0       0.29583495357230927           0.009140201678589241         0.6468935243017955 1.0000   
         H         H         1.0       0.3033560596798798  0.014681714804395283         0.7400944660674218 1.0000   
         H         H         1.0       0.2771518126679061  0.05543061640361319           0.7398196767122309 1.0000   
         H         H         1.0       0.22351859207468686           0.10889436836157756          0.6501000844279263 1.0000   
         H         H         1.0       0.23237939206135944           0.1383699344667283 0.6071360597722617 1.0000   
         H         H         1.0       0.31455753313585544           0.12293529587698038          0.6209579380233193 1.0000   
         H         H         1.0       0.3067225941607029  0.0978866399327643  0.6625603982888206 1.0000   
         H         H         1.0       0.25246974074023587           0.08181268263492868          0.5192684074596982 1.0000   
         H         H         1.0       0.24507664780446073           0.11765603656012873          0.548860036211197  1.0000   
         H         H         1.0       0.3296993304873908  0.1189033432284722  0.56615026006865   1.0000   
         H         H         1.0       0.33533930210740887           0.08601292604932072          0.5296042382951764 1.0000   
         H         H         1.0       0.29496685895736524           0.1758413619160233 0.6327969864078377 1.0000   
         H         H         1.0       0.33288208009211234           0.20423363531383237          0.642753628755314  1.0000   
         H         H         1.0       0.34819594692062505           0.21014290393930204          0.5489295183155803 1.0000   
         H         H         1.0       0.3158265954033939  0.17240585843764814           0.5406551576780524 1.0000   
         H         H         1.0       0.27124550838644    0.16479249269421092           0.5197380274788663 1.0000   
         H         H         1.0       0.23838006355404373           0.19512585628212287          0.49953417577368897          1.0000   
         H         H         1.0       0.2121316271064942  0.21562635883912337           0.5821480018901665 1.0000   
         H         H         1.0       0.24828200214432003           0.18807915315660226          0.6066819868081479 1.0000   
         C         C         1.0       0.4050922118264598  0.4438894703076433  0.47542326440776933          1.0000   
         C         C         1.0       0.3887695587519014  0.4222051834249382  0.4692218379900398 1.0000   
         C         C         1.0       0.3648986551266935  0.42580630192212365           0.45553355458164774          1.0000   
         C         C         1.0       0.35722816073310093           0.450344269911878  0.44664236672050917          1.0000   
         C         C         1.0       0.3729574978489667  0.47229519613764226           0.4537337760260348 1.0000   
         C         C         1.0       0.39678175952054856           0.4686755867547844 0.46775078979098555          1.0000   
         H         H         1.0       0.39521647010931055           0.40224034239340967          0.4737368994349314 1.0000   
         H         H         1.0       0.35343670185244935           0.4065081782218355 0.4523428407371431 1.0000   
         H         H         1.0       0.3670913656589776  0.49321823351964844           0.44889689927174575          1.0000   
         H         H         1.0       0.4073785033723831  0.4853399939720605  0.4738012795681614 1.0000   
         C         C         1.0       0.31316479557237437           0.48793477765289   0.4671547315837188 1.0000   
         C         C         1.0       0.3166436273702131  0.4815154391388831  0.4377808159407323 1.0000   
         C         C         1.0       0.3045182811278595  0.49773551335079563           0.41674637766499817          1.0000   
         C         C         1.0       0.2945863144498488  0.01552448695599907           0.44114522962737895          1.0000   
         C         C         1.0       0.2947018009998116  0.018360683020534813         0.47255817830373664          1.0000   
         C         C         1.0       0.3093147011286138  0.0004933364702136458        0.4903981307462394 1.0000   
         C         C         1.0       0.33172038089042805           0.455313783801817  0.4265152908514748 1.0000   
         C         C         1.0       0.3081818763741666  0.43720813557627536           0.4299040947225139 1.0000   
         C         C         1.0       0.2903663355193184  0.4353546965078367  0.40780334395909845          1.0000   
         C         C         1.0       0.2679862838684656  0.42011064350120814           0.411358754472844  1.0000   
         C         C         1.0       0.26473570992861617           0.40606118729131707          0.437703076029606  1.0000   
         C         C         1.0       0.2835664039953011  0.40722083858405134           0.45959501290897375          1.0000   
         C         C         1.0       0.3041598563824716  0.423332241322132   0.455839339826914  1.0000   
         C         C         1.0       0.35880465799943595           0.4748530017924702 0.38306300599069804          1.0000   
         C         C         1.0       0.37161792277709954           0.4724128553000761 0.3555748510782451 1.0000   
         C         C         1.0       0.37501488574218467           0.4482894373045669 0.34277535338822107          1.0000   
         C         C         1.0       0.3621909161786078  0.42663893731607727           0.3553575562275617 1.0000   
         C         C         1.0       0.34739642756787603           0.4297925167328396 0.38057565043604746          1.0000   
         C         C         1.0       0.34622265845580985           0.45376136996738936          0.39504169258151317          1.0000   
         C         C         1.0       0.3926473384668452  0.44382130793844043           0.3143364924594076 1.0000   
         C         C         1.0       0.3364707185024659  0.4557559756763653  0.24104724288726195          1.0000   
         C         C         1.0       0.3443902618556722  0.4764688321947054  0.25861142881432825          1.0000   
         C         C         1.0       0.3616152787884863  0.47279590016333223           0.2823103004544979 1.0000   
         C         C         1.0       0.37121235482589926           0.44667253403415497          0.28798578725951207          1.0000   
         C         C         1.0       0.3618124830141662  0.4259613357036446  0.2716629310212201 1.0000   
         C         C         1.0       0.34555896937797453           0.430994903785688  0.2481632832487365 1.0000   
         C         C         1.0       0.41144316725426017           0.4182127134407773 0.31467677068491645          1.0000   
         C         C         1.0       0.4234814853997861  0.4094638847781312  0.3414845970722362 1.0000   
         C         C         1.0       0.4411609813327801  0.38841506720675695           0.3418270078342911 1.0000   
         C         C         1.0       0.4489716439526543  0.37698932026871107           0.3147607395709843 1.0000   
         C         C         1.0       0.44035470214320926           0.38831691481807773          0.28844631208938964          1.0000   
         C         C         1.0       0.4208105297268406  0.4078720591675761  0.2886584018613713 1.0000   
         C         C         1.0       0.42216062645597274           0.4751328441741897 0.2820243740411994 1.0000   
         C         C         1.0       0.44025588492994583           0.4948493731382253 0.2790334377094374 1.0000   
         C         C         1.0       0.4556306142548318  0.501367352883655   0.30304206193953104          1.0000   
         C         C         1.0       0.452060319631074   0.48995213377271174           0.32949339203503375          1.0000   
         C         C         1.0       0.43126135792668396           0.47313344779165534          0.3330048554737272 1.0000   
         C         C         1.0       0.416588550114087   0.46405490424289814           0.3103003155289896 1.0000   
         H         H         1.0       0.32239629210740883           0.4769177728763769 0.4845585723454999 1.0000   
         H         H         1.0       0.30770018339721256           0.49246596471226844          0.39532240437943583          1.0000   
         H         H         1.0       0.2832351834685232  0.03069497380953509           0.4278421754463573 1.0000   
         H         H         1.0       0.3103268650041688  0.003470162357554918         0.512963759303594  1.0000   
         H         H         1.0       0.2890418679495563  0.45047903074535295           0.3900877572939412 1.0000   
         H         H         1.0       0.25207391850645644           0.42037253627461424          0.3943516665869374 1.0000   
         H         H         1.0       0.2816095197234     0.3963956574898247  0.48081561749115687          1.0000   
         H         H         1.0       0.3180620250078048  0.42399214356351056           0.4748273646305292 1.0000   
         H         H         1.0       0.35942462891186966           0.4943487064619247 0.39195286499839255          1.0000   
         H         H         1.0       0.3809653952237663  0.48967995718734597           0.3457600325284223 1.0000   
         H         H         1.0       0.3658834301205797  0.40638867369918136           0.3456200552235654 1.0000   
         H         H         1.0       0.3371978705727227  0.41289715219731177           0.38752933370531234          1.0000   
         H         H         1.0       0.3385950916305839  0.4983422451906595  0.25408609919069214          1.0000   
         H         H         1.0       0.3678809927624129  0.489956650950481   0.29577194436760984          1.0000   
         H         H         1.0       0.3670796213312998  0.4058083020485402  0.2755846135423485 1.0000   
         H         H         1.0       0.3383170854782836  0.41556111254273864           0.23422740781671736          1.0000   
         H         H         1.0       0.4153916847516447  0.41740115492315844           0.36115714102347285          1.0000   
         H         H         1.0       0.4491940048863022  0.3793189940637329  0.3618481361092508 1.0000   
         H         H         1.0       0.4477423556693072  0.38136003354510595           0.2680368245609071 1.0000   
         H         H         1.0       0.4160559253732349  0.4166561976247514  0.26687318746274175          1.0000   
         H         H         1.0       0.411418204660398   0.4676545571891802  0.26148642241313186          1.0000   
         H         H         1.0       0.443866607723758   0.4999340634811501  0.255934601288706  1.0000   
         H         H         1.0       0.46526851505453876           0.4959382535637647 0.3475642441285909 1.0000   
         H         H         1.0       0.42579259999755126           0.46850608101566166          0.3545217504205231 1.0000   
         C         C         1.0       0.18882895422930493           0.34285408246392834          0.25165333173703647          1.0000   
         C         C         1.0       0.17373913328559498           0.3651533886288151 0.25389424403685024          1.0000   
         C         C         1.0       0.17870452533973993           0.38612540205651835          0.23635243401513237          1.0000   
         C         C         1.0       0.1996885196870628  0.3867826587934199  0.2167395809769242 1.0000   
         C         C         1.0       0.2155475748600009  0.36337130517294064           0.2153090871048686 1.0000   
         C         C         1.0       0.20942419271605303           0.3419407768762326 0.2325012580797417 1.0000   
         H         H         1.0       0.15833342234734082           0.3671503781774421 0.27094216588790776          1.0000   
         H         H         1.0       0.16625138990037416           0.40263473899045754          0.24073493567663728          1.0000   
         H         H         1.0       0.23094119725375994           0.36343805296033793          0.1994687996363203 1.0000   
         H         H         1.0       0.2202288145510433  0.3232243373955104  0.22963159593786486          1.0000   
         C         C         1.0       0.25318946241412266           0.4124282921544612 0.2169268211598456 1.0000   
         C         C         1.0       0.23463597537160352           0.4171995891856885 0.19389705251766176          1.0000   
         C         C         1.0       0.24265500729880662           0.43241931311109333          0.17023241694549968          1.0000   
         C         C         1.0       0.2678398478601007  0.44176528342382954           0.16846133956337342          1.0000   
         C         C         1.0       0.2856376648761928  0.43423776263261915           0.18957177314518078          1.0000   
         C         C         1.0       0.2786886433420104  0.4187403795479459  0.21276013009550837          1.0000   
         C         C         1.0       0.20563071031583982           0.40922672060781734          0.19540570044112868          1.0000   
         C         C         1.0       0.1922384423976135  0.43744895434530734           0.20509291248170936          1.0000   
         C         C         1.0       0.17353242416462852           0.4510562168023436 0.18822604439163426          1.0000   
         C         C         1.0       0.16362669337564897           0.47472822115506597          0.19706557495606553          1.0000   
         C         C         1.0       0.1691508116859883  0.48562222335761746           0.22426822957458678          1.0000   
         C         C         1.0       0.18536661716809152           0.4711277391807196 0.24350719639591867          1.0000   
         C         C         1.0       0.19678847247566855           0.44708251016741485          0.23353984518798174          1.0000   
         C         C         1.0       0.21192452022071886           0.38365603846955737          0.14509535987804464          1.0000   
         C         C         1.0       0.2023653527189862  0.36964358774527845           0.12146261628966556          1.0000   
         C         C         1.0       0.1762532607274205  0.3659829194557403  0.11567246199890764          1.0000   
         C         C         1.0       0.15828940498131755           0.37943316114104825          0.13413339941966773          1.0000   
         C         C         1.0       0.16763794223153206           0.3939403095835497 0.15796726744743964          1.0000   
         C         C         1.0       0.19457251202843118           0.396305875064705  0.16460863903694364          1.0000   
         C         C         1.0       0.1654231278951711  0.34492228882719594           0.08887819644039481          1.0000   
         C         C         1.0       0.15383311167419297           0.3992960919598699 0.014890556867743899         1.0000   
         C         C         1.0       0.17552715879238653           0.38490412972494126          0.017932095138012954         1.0000   
         C         C         1.0       0.17964620540000326           0.36870583297818443          0.04052149347893049          1.0000   
         C         C         1.0       0.16151455217559643           0.3668522984062379 0.06387625692590887          1.0000   
         C         C         1.0       0.13924083576929253           0.38301082653744517          0.061785417129187815         1.0000   
         C         C         1.0       0.13454660231831608           0.3988142256654462 0.03701532874016209          1.0000   
         C         C         1.0       0.13971024063792323           0.3300401767395217 0.09932624064365259          1.0000   
         C         C         1.0       0.13802028851252326           0.32205282294205856          0.12943407367324117          1.0000   
         C         C         1.0       0.1151282783089701  0.31075617223848134           0.1388464129011107 1.0000   
         C         C         1.0       0.09378684658732823           0.307421543432818  0.12018846686916183          1.0000   
         C         C         1.0       0.09524176049618904           0.31729885594869556          0.09171741994547943          1.0000   
         C         C         1.0       0.11808224935380285           0.3266475548356737 0.08228086038680087          1.0000   
         C         C         1.0       0.18335040617733198           0.3082713969721328 0.05203233101829194          1.0000   
         C         C         1.0       0.20102247663667747           0.2891709325556551 0.043664298945795425         1.0000   
         C         C         1.0       0.21719832165835978           0.27691926984290527          0.06335721233925926          1.0000   
         C         C         1.0       0.2146803430836488  0.284190941874114   0.09350186611497574          1.0000   
         C         C         1.0       0.1990495591583404  0.30576515693746076           0.1012066857104838 1.0000   
         C         C         1.0       0.1825327732243794  0.318556948466957   0.08056995400992109          1.0000   
         H         H         1.0       0.24580456931014483           0.40253216968229777          0.23675574997316692          1.0000   
         H         H         1.0       0.22986584379620828           0.43864026267795425          0.1542227838905744 1.0000   
         H         H         1.0       0.272561352777309   0.4545112613727079  0.14954311635244744          1.0000   
         H         H         1.0       0.29240432053062276           0.4148092453340108 0.2312767768614124 1.0000   
         H         H         1.0       0.16829146488074026           0.44344129582921826          0.1669096513088606 1.0000   
         H         H         1.0       0.1533569104374052  0.4851766369604827  0.1808283499075119 1.0000   
         H         H         1.0       0.19078362520426353           0.47725709509967207          0.26589510287229756          1.0000   
         H         H         1.0       0.21061581814529506           0.43582279511141603          0.24671514153030666          1.0000   
         H         H         1.0       0.23245804263008055           0.38138819919463324          0.14948759452332164          1.0000   
         H         H         1.0       0.2188156607145886  0.3602424474157368  0.10903763001278421          1.0000   
         H         H         1.0       0.1366782076039914  0.37887509802010494           0.12990873238927178          1.0000   
         H         H         1.0       0.15515346838688804           0.4017336926184911 0.17291995570050486          1.0000   
         H         H         1.0       0.1906691939618748  0.3851231367749412  0.00075755786029081          1.0000   
         H         H         1.0       0.19900225024728177           0.36030034222510526          0.043524734480175624         1.0000   
         H         H         1.0       0.12694596220815538           0.38493602937523164          0.08050483745005209          1.0000   
         H         H         1.0       0.11842229880608822           0.4131987698244716 0.037527616208950516         1.0000   
         H         H         1.0       0.15531625950439917           0.32446868841415805          0.14403601350022238          1.0000   
         H         H         1.0       0.11421654606106206           0.30368014908273344          0.16287874274458647          1.0000   
         H         H         1.0       0.07988296742873303           0.3150597246306485 0.07454303754138332          1.0000   
         H         H         1.0       0.11831874860208225           0.3285460671837938 0.05842898343516858          1.0000   
         H         H         1.0       0.16941232249754112           0.31381349893099864          0.03557441259426264          1.0000   
         H         H         1.0       0.19959083625760024           0.28152183059243524          0.020982631839713852         1.0000   
         H         H         1.0       0.22474636529847627           0.27438041034879496          0.11173706953891761          1.0000   
         H         H         1.0       0.19795171159046074           0.3109997088517375 0.12481675307477401          1.0000   
         C         C         1.0       0.3128154477442937  0.4448266951319669  0.18825942596020515          1.0000   
         C         C         1.0       0.32091994864609913           0.4642897022254014 0.21295515797038142          1.0000   
         H         H         1.0       0.32698420021179575           0.42782132532336875          0.18837408399868566          1.0000   
         H         H         1.0       0.3163045236063213  0.45503106712414504           0.16673457833036529          1.0000   
         H         H         1.0       0.30290868533061216           0.4738603798154932 0.2216299542092647 1.0000   
         H         H         1.0       0.33333258092137613           0.47811006626599406          0.20210240608581076          1.0000   
         C         C         1.0       0.2993555967322194  0.06445873939754886           0.49222105267298155          1.0000   
         C         C         1.0       0.28055419385779395           0.04222163297900386          0.48494256631244015          1.0000   
         H         H         1.0       0.30065541199080636           0.07871806976184585          0.4728110747666002 1.0000   
         H         H         1.0       0.31937952027032035           0.056021780749696  0.49568039046097745          1.0000   
         H         H         1.0       0.2656927714151827  0.04808723555741099           0.46969426220473753          1.0000   
         H         H         1.0       0.2705183442181905  0.036231975512683715         0.5043283607932981 1.0000   
         C         C         1.0       0.17043527003860057           0.44256452213512626          0.990773328394971  1.0000   
         C         C         1.0       0.15017717957726417           0.4192974252712755 0.9891570302457644 1.0000   
         H         H         1.0       0.19044577479261143           0.4394273685800036 0.980463014109894  1.0000   
         H         H         1.0       0.17573597003604174           0.44648941850249285          0.014985920350686233         1.0000   
         H         H         1.0       0.14895008368586993           0.4098423165979214 0.9674123982906135 1.0000   
         H         H         1.0       0.1308068061513995  0.42847058752381234           0.990860247353277  1.0000   
         C         C         1.0       0.15065508736162306           0.04546304823769213          0.7127544010546011 1.0000   
         C         C         1.0       0.12938355363382306           0.06831919912934661          0.7158476174027656 1.0000   
         H         H         1.0       0.14365129412479816           0.032205150198260715         0.6931339869091998 1.0000   
         H         H         1.0       0.15331460661176063           0.032611682545736355         0.7320644288544585 1.0000   
         H         H         1.0       0.11601830455381666           0.0686118400592471 0.6965406436138893 1.0000   
         H         H         1.0       0.13877946365307167           0.08828474835526037          0.7130438040145876 1.0000   
         C         C         1.0       0.26234583623888597           0.265813357262857  0.04625337239687644          1.0000   
         C         C         1.0       0.2344997937186564  0.25487732564782506           0.052946367176880366         1.0000   
         H         H         1.0       0.2583901488566408  0.28393559944997415           0.03254276247199652          1.0000   
         H         H         1.0       0.27010567635587135           0.2708349846239054 0.06902375867079752          1.0000   
         H         H         1.0       0.22634808597767747           0.24350959913971099          0.03509769386537479          1.0000   
         H         H         1.0       0.23366892615446105           0.23942619777443272          0.07017759884596858          1.0000   
         C         C         1.0       0.2801111502558932  0.1598432479711983  0.7822137589641689 1.0000   
         C         C         1.0       0.29471017343064193           0.18563721503863512          0.7748917729249815 1.0000   
         H         H         1.0       0.26124883854600744           0.16534748622591988          0.7919251693582968 1.0000   
         H         H         1.0       0.2918106582465395  0.1496818242228477  0.7989058658765458 1.0000   
         H         H         1.0       0.2808517368459184  0.20265022983136788           0.7720586166018201 1.0000   
         H         H         1.0       0.30593869167308246           0.18314069214609066          0.7541685966138921 1.0000   
         C         C         1.0       0.2281510903175725  0.09002981951869624           0.9564648686309829 1.0000   
         C         C         1.0       0.22462457532719718           0.11774320002536125          0.9694950703761717 1.0000   
         H         H         1.0       0.24000457013595647           0.07730128137998375          0.970305860322652  1.0000   
         H         H         1.0       0.23794762965047414           0.08925835290377346          0.9344624697121771 1.0000   
         H         H         1.0       0.21493875944017468           0.11773811711930986          0.9920804022946234 1.0000   
         H         H         1.0       0.2100969274192054  0.12930382647890473           0.9560249548890394 1.0000   
         C         C         1.0       0.4691746485516543  0.1465190973326428  0.8694443456768894 1.0000   
         C         C         1.0       0.4850197416830232  0.14509213111740077           0.8404738239871566 1.0000   
         H         H         1.0       0.48228107056601976           0.15191240879591708          0.8894272612384898 1.0000   
         H         H         1.0       0.46233174034319197           0.12585755920041752          0.8762840059159378 1.0000   
         H         H         1.0       0.4925223894852589  0.16529671192525716           0.8357711334885038 1.0000   
         H         H         1.0       0.4709047014966089  0.14052410688576758           0.821229012701807  1.0000   
         C         C         1.0       0.9850691944459234  0.02011843995289491           0.257144810075657  1.0000   
         C         C         1.0       0.48753548872566765           0.009225932431826596         0.2973199626191684 1.0000   
         H         H         1.0       0.49044513242999127           0.49380218898917955          0.25914485896565786          1.0000   
         H         H         1.0       0.01709833214128412           0.5115450603476207 0.2874852611853908 1.0000   
         H         H         1.0       0.4825793675227688  0.02881883490322142           0.29407040554294583          1.0000   
         H         H         1.0       0.4995780311615309  0.0063244362243541664        0.31802994485693103          1.0000   
         C         C         1.0       0.410641700272727   0.15009042895489189           0.08905921409973525          1.0000   
         C         C         1.0       0.41181225677973    0.1393632471428459  0.055785078874117836         1.0000   
         H         H         1.0       0.40168954026701326           0.16990581966037252          0.09170147260311586          1.0000   
         H         H         1.0       0.3991598401747813  0.13687882328346057           0.10343264178017057          1.0000   
         H         H         1.0       0.4169002193431434  0.11815598921255098           0.05228862524246977          1.0000   
         H         H         1.0       0.4286825377844426  0.1505445610993317  0.0459515314895108 1.0000   
         C         C         1.0       0.06519400803040763           0.2756956613816314 0.15264012369691293          1.0000   
         C         C         1.0       0.06587266897468579           0.2976223870510059 0.12880638686663737          1.0000   
         H         H         1.0       0.053217434926410435          0.28473840133174444          0.17140369953544163          1.0000   
         H         H         1.0       0.08476107247199173           0.27238545250808516          0.16095560629275135          1.0000   
         H         H         1.0       0.05468859936613465           0.29217725484483076          0.10818417780609188          1.0000   
         H         H         1.0       0.05585123916982016           0.3159870810953349 0.13497866714613557          1.0000   
         C         C         1.0       0.15763088775853254           0.512991884959414  0.233500740197499  1.0000   
         C         C         1.0       0.14948026737146977           0.030781944498109927         0.22442463199807977          1.0000   
         H         H         1.0       0.13606807758219427           0.51133920616732   0.23017423274991156          1.0000   
         H         H         1.0       0.12868484004075834           0.999944075211067  0.2506687294780837 1.0000   
         H         H         1.0       0.1581349473201033  0.02912373090595549           0.20235976315260581          1.0000   
         H         H         1.0       0.16564522647726393           0.031205986132149276         0.23986414989210092          1.0000   
         C         C         1.0       0.05417569053781756           0.11385851879290432          0.9973874566699065 1.0000   
         C         C         1.0       0.07071082916438158           0.11107757286633531          0.02683220579915746          1.0000   
         H         H         1.0       0.5255330570618576  0.13457064845991346           0.9764738275387002 1.0000   
         H         H         1.0       0.5114615407503109  0.1067985070902087  0.9575283667676465 1.0000   
         H         H         1.0       0.5002614298228972  0.0879061938001245  0.009434172945033126         1.0000   
         H         H         1.0       0.07107855213900802           0.089189453034954  0.031349661637327886         1.0000   
         C         C         1.0       0.1989098338279414  0.21825345609547955           0.5250787286473823 1.0000   
         C         C         1.0       0.20710331577195795           0.24517014539878426          0.5131399387028382 1.0000   
         H         H         1.0       0.19173627552519876           0.20650040370629505          0.5048778217830838 1.0000   
         H         H         1.0       0.1823488641610438  0.21857104648502476           0.5411495490228883 1.0000   
         H         H         1.0       0.22398869164609322           0.2432963921721995 0.49804434220914584          1.0000   
         H         H         1.0       0.21516099200597288           0.2567404814125631 0.5329541294494475 1.0000   
         C         C         1.0       0.02128922857278605           0.18444174261226162          0.3504850388850761 1.0000   
         C         C         1.0       0.04280544014307064           0.16238596226249202          0.348401510275564  1.0000   
         H         H         1.0       0.011268120006552954          0.18323545464046895          0.37193170494460975          1.0000   
         H         H         1.0       0.005763619705591616          0.18267741438017718          0.33282976460652863          1.0000   
         H         H         1.0       0.036359017967355044          0.14630943394937287          0.3632368059043955 1.0000   
         H         H         1.0       0.06020627901706056           0.16820310486942022          0.360890136343441  1.0000   
         C         C         1.0       0.49657248666545034           0.36123330584092694          0.3047919479347072 1.0000   
         C         C         1.0       0.46841355563816833           0.35378369610406707          0.31603456584313294          1.0000   
         H         H         1.0       0.9623276170943365  0.35410807436468617           0.33955558951951786          1.0000   
         H         H         1.0       0.5021877123994383  0.37958355627826434           0.3183096567086478 1.0000   
         H         H         1.0       0.4703038610359806  0.3444108177988959  0.3386333515588541 1.0000   
         H         H         1.0       0.4596455837782624  0.3390631341994739  0.3015527129882264 1.0000   
         C         C         1.0       0.21585181242863058           0.40075339364887214          0.448356526889683  1.0000   
         C         C         1.0       0.24185207186647661           0.3867901354370068 0.4403653937958039 1.0000   
         H         H         1.0       0.21049986162395898           0.4188939178659732 0.43468340342281325          1.0000   
         H         H         1.0       0.21839055618697054           0.40685751360374034          0.4709685308731781 1.0000   
         H         H         1.0       0.24005576217881708           0.376905058977242  0.41862683533611517          1.0000   
         H         H         1.0       0.24545111980705023           0.37156888349717165          0.45635674596700904          1.0000   
         C         C         1.0       0.18512047441301632           0.31880226831540215          0.2718952456113092 1.0000   
         C         C         1.0       0.16247392204707164           0.3005787164113876 0.2605026795637495 1.0000   
         H         H         1.0       0.20495435360683786           0.3090364649953148 0.27706661165251967          1.0000   
         H         H         1.0       0.18022263549632744           0.32274527470787023          0.2946408823396691 1.0000   
         H         H         1.0       0.17088711224480252           0.2797465361741085 0.2554177226498733 1.0000   
         H         H         1.0       0.15717742479419655           0.30650770853083004          0.23790300286547272          1.0000   
         C         C         1.0       0.49684311101228473           0.4430700220317683 0.7830763683774709 1.0000   
         C         C         1.0       0.4903038977119698  0.4728198427409146  0.788060177819759  1.0000   
         H         H         1.0       0.020130621725738113          0.43467927229107467          0.7908942871646172 1.0000   
         H         H         1.0       0.027966802901938773          0.45142170169883494          0.7582276122653843 1.0000   
         H         H         1.0       0.4850725409527511  0.48025835139415624           0.766017887799912  1.0000   
         H         H         1.0       0.4726816033695651  0.47582523780496816           0.8008483389057722 1.0000   
         C         C         1.0       0.4481650282126961  0.4155162224915479  0.4927042035424799 1.0000   
         C         C         1.0       0.43352752487237517           0.44211546356473624          0.4877746359254914 1.0000   
         H         H         1.0       0.4696001158276053  0.4194886487438     0.4930631775620363 1.0000   
         H         H         1.0       0.44486227137859397           0.40447635366752205          0.47144730748304337          1.0000   
         H         H         1.0       0.4453356486268029  0.45336762563999394           0.4709696868504188 1.0000   
         H         H         1.0       0.4339363966492588  0.45213913911777026           0.5099884664507562 1.0000   
         C         C         1.0       0.32026102969225234           0.9858364533531234 0.694073817104949  1.0000   
         C         C         1.0       0.35924499833715917           0.49939909309328356          0.7190292303684664 1.0000   
         H         H         1.0       0.3111669432878211  0.9681443792619479  0.7047419950374336 1.0000   
         H         H         1.0       0.3241465519045522  0.9784321591025213  0.6717156488132875 1.0000   
         H         H         1.0       0.3667905547965512  0.5095347039471825  0.7405562433053666 1.0000   
         H         H         1.0       0.3679281660084741  0.5085350733076335  0.6979200495018754 1.0000   
         C         C         1.0       0.3523943409670446  0.2592151856100293  0.5992612140553889 1.0000   
         C         C         1.0       0.3630775428906315  0.23061389444137548           0.5998446468777278 1.0000   
         H         H         1.0       0.3440536790431222  0.2642223792907841  0.6210973664361759 1.0000   
         H         H         1.0       0.3356173242098098  0.2613671553462545  0.5843912114870496 1.0000   
         H         H         1.0       0.37369975043807707           0.2271631972921873 0.6229408286195178 1.0000   
         H         H         1.0       0.38006452039651145           0.22551478392647414          0.5844305223940851 1.0000   
         C         C         1.0       0.039316500816812   0.3316016465915851  0.5558832018137548 1.0000   
         C         C         1.0       0.03609045506117697           0.32938300475439836          0.5208214993778124 1.0000   
         H         H         1.0       0.05354819031390447           0.34722043451704165          0.561849939240063  1.0000   
         H         H         1.0       0.049318118209389104          0.3130778163968653 0.5632173150850462 1.0000   
         H         H         1.0       0.026622256042201354          0.347629906330074  0.5112186833016056 1.0000   
         H         H         1.0       0.022730308743964367          0.3129307126009586 0.513906126390889  1.0000   
         C         C         1.0       0.3672873853475773  0.31827093119469724           0.8232311076410445 1.0000   
         C         C         1.0       0.3643219584582908  0.3113486146160654  0.7888284307342092 1.0000   
         H         H         1.0       0.3522844645481764  0.33180895167390084           0.8313208211193266 1.0000   
         H         H         1.0       0.38612738431358185           0.32918369718570145          0.8246483632576017 1.0000   
         H         H         1.0       0.34376415910374025           0.3081684828121278 0.784324519841756  1.0000   
         H         H         1.0       0.3726590403346301  0.2925715388176397  0.7798435018214539 1.0000   
         C         C         1.0       0.44675874972065277           0.8835193909033896 0.5156041469579188 1.0000   
         C         C         1.0       0.4454057616543781  0.8568252680957588  0.515758711192202  1.0000   
         C         C         1.0       0.44173722815378375           0.8436759207488617 0.5433940039868286 1.0000   
         C         C         1.0       0.44161275226661884           0.856191242487483  0.5715242137501313 1.0000   
         C         C         1.0       0.44127419205575164           0.8843056935103929 0.5700775416828244 1.0000   
         C         C         1.0       0.4444810150539073  0.8968611963458097  0.5423322776809429 1.0000   
         H         H         1.0       0.4471812786146176  0.8466918027964156  0.4951597194751288 1.0000   
         H         H         1.0       0.4448979484845208  0.8235473500345798  0.5413720899739642 1.0000   
         H         H         1.0       0.442872935320111   0.8969535516663997  0.5898490193698712 1.0000   
         H         H         1.0       0.44553119312823997           0.9182139104657413 0.5455776258375912 1.0000   
         C         C         1.0       0.49511053888419015           0.8545119224187855 0.599290706236912  1.0000   
         C         C         1.0       0.4772611684028806  0.8338596384053948  0.5982702659224544 1.0000   
         C         C         1.0       0.48607195150948945           0.8098434346178923 0.5844789450412844 1.0000   
         C         C         1.0       0.5128786748434956  0.8074538778679716  0.575949366428787  1.0000   
         C         C         1.0       0.011712745799210864          0.8374485113093879 0.5899051328673262 1.0000   
         C         C         1.0       0.004249377592930183          0.8626623858872813 0.5992539887293771 1.0000   
         C         C         1.0       0.4464748919115433  0.8401700436970435  0.6009495772714291 1.0000   
         C         C         1.0       0.4283439014400591  0.8147020340752408  0.6034908817469467 1.0000   
         C         C         1.0       0.43549808535124845           0.7938147474633229 0.622649993886001  1.0000   
         C         C         1.0       0.4210869621502396  0.771189836176865   0.6224081480740902 1.0000   
         C         C         1.0       0.3998306933652469  0.7665804291942213  0.6037229688195809 1.0000   
         C         C         1.0       0.39340413154303305           0.787428258528879  0.5854662667622765 1.0000   
         C         C         1.0       0.4060630556524608  0.8107448985018958  0.5865480477091655 1.0000   
         C         C         1.0       0.4566425523419234  0.8549213516445753  0.6556597044991113 1.0000   
         C         C         1.0       0.451046173096703   0.8691942715976309  0.6814283734276501 1.0000   
         C         C         1.0       0.42685907568762405           0.8819570061929392 0.6851287814309807 1.0000   
         C         C         1.0       0.4070231106701335  0.8782650851120875  0.6636690582224507 1.0000   
         C         C         1.0       0.4126763259357495  0.864413809818631   0.6377256510864932 1.0000   
         C         C         1.0       0.4382787220065134  0.8542590033095688  0.6323987186155186 1.0000   
         C         C         1.0       0.41733120332427476           0.8967731954641381 0.7153747495581081 1.0000   
         C         C         1.0       0.3983114113525203  0.8250959293634978  0.7645730062364083 1.0000   
         C         C         1.0       0.42430700088391554           0.831809183455895  0.7605467782197898 1.0000   
         C         C         1.0       0.42930699453342885           0.8553015953713615 0.7461186469569914 1.0000   
         C         C         1.0       0.4090007482249898  0.8713316667788045  0.7329659661795314 1.0000   
         C         C         1.0       0.3839789241501283  0.8620628005820677  0.7335350227264239 1.0000   
         C         C         1.0       0.37751862055067203           0.8399003575268288 0.7511686994774177 1.0000   
         C         C         1.0       0.3932820341367505  0.9190009228854418  0.7120943357523803 1.0000   
         C         C         1.0       0.3945980773278657  0.9359871521413623  0.6884135154599531 1.0000   
         C         C         1.0       0.3798146499111825  0.9580658027425895  0.6865657679348233 1.0000   
         C         C         1.0       0.3637967721798548  0.9644533057753876  0.7102504283975337 1.0000   
         C         C         1.0       0.361607324077562   0.94801716322047    0.7341258514661002 1.0000   
         C         C         1.0       0.37732833780215796           0.926123813624031  0.7354127157707115 1.0000   
         C         C         1.0       0.4428444355285297  0.9150698842129067  0.7637112939595384 1.0000   
         C         C         1.0       0.46282185098096157           0.9304169010621296 0.7755635704398826 1.0000   
         C         C         1.0       0.47780996563319356           0.9448467864155324 0.756814761874111  1.0000   
         C         C         1.0       0.47444616918293075           0.9440035764164064 0.7262452447875977 1.0000   
         C         C         1.0       0.45490143937140387           0.9290470309080566 0.7141252167030663 1.0000   
         C         C         1.0       0.4396310233100885  0.9137407210328968  0.7325760649894358 1.0000   
         H         H         1.0       0.4893636757055621  0.8730991198458589  0.6084891122080648 1.0000   
         H         H         1.0       0.47195944848433874           0.7928802292162344 0.5828612448427952 1.0000   
         H         H         1.0       0.0003090625999644987         0.7971412888685772 0.5826358373866041 1.0000   
         H         H         1.0       0.018732557499409313          0.8778239776827437 0.6014213594953484 1.0000   
         H         H         1.0       0.45044540196921046           0.7951608526446836 0.6395121990621073 1.0000   
         H         H         1.0       0.427081724944166   0.756497892878511   0.6379126357216114 1.0000   
         H         H         1.0       0.37619927164087524           0.7830231356757735 0.5718472905480201 1.0000   
         H         H         1.0       0.3998490299042763  0.8265752848215112  0.5714337488745467 1.0000   
         H         H         1.0       0.47467975697455883           0.8445396364493922 0.6535884783881573 1.0000   
         H         H         1.0       0.4647479229224349  0.8731286214834499  0.7005803521981825 1.0000   
         H         H         1.0       0.3870710856568736  0.8860198108514502  0.6632188891323536 1.0000   
         H         H         1.0       0.39848305659703454           0.8657963854615421 0.6206624826445208 1.0000   
         H         H         1.0       0.4394381047211033  0.8218033599278379  0.7722374577479756 1.0000   
         H         H         1.0       0.44943654816300593           0.8612758237427948 0.7436665926387064 1.0000   
         H         H         1.0       0.36762355095269833           0.8719515222498373 0.7232722859832531 1.0000   
         H         H         1.0       0.35566248071085865           0.8347193631363515 0.7514707129076398 1.0000   
         H         H         1.0       0.407968775114509   0.932460325972019   0.6709924455316524 1.0000   
         H         H         1.0       0.3799562424355524  0.9692894989468688  0.6664233554980942 1.0000   
         H         H         1.0       0.34784734504770143           0.9514059204431885 0.7522949989272072 1.0000   
         H         H         1.0       0.3806164958153785  0.9153114194624232  0.7552670436470198 1.0000   
         H         H         1.0       0.43068651154278215           0.9046956320403473 0.7790442052895472 1.0000   
         H         H         1.0       0.46430281862927414           0.933293392196497  0.7995948512648481 1.0000   
         H         H         1.0       0.4868355337552781  0.9540408351182679  0.7113171024617254 1.0000   
         H         H         1.0       0.4540428755976914  0.927644440240872   0.6901945770587797 1.0000   
         C         C         1.0       0.17141301935409484           0.8255053728674362 0.3229904234387266 1.0000   
         C         C         1.0       0.15743750486457875           0.8466112204828558 0.3332762553386842 1.0000   
         C         C         1.0       0.13239759619665806           0.8429567931898633 0.3433461522660832 1.0000   
         C         C         1.0       0.11919989561723918           0.8193065436059211 0.33982747511706474          1.0000   
         C         C         1.0       0.13406980395707294           0.7978519890109024 0.3311095350034844 1.0000   
         C         C         1.0       0.15944811126193315           0.8006633738386614 0.3216527734655158 1.0000   
         H         H         1.0       0.1666421716538633  0.865374054586491   0.33275120477310743          1.0000   
         H         H         1.0       0.12121269090837533           0.8594451893747018 0.35178254597169395          1.0000   
         H         H         1.0       0.1253090543266456  0.7785696542487648  0.32687514013455526          1.0000   
         H         H         1.0       0.16911356785302847           0.782390307630216  0.3146668400017193 1.0000   
         C         C         1.0       0.0757788770678243  0.7880522269586393  0.3038451290495118 1.0000   
         C         C         1.0       0.07711316462627747           0.789467801355006  0.33439419524125047          1.0000   
         C         C         1.0       0.06208419548802075           0.7701893456053258 0.34934065866994823          1.0000   
         C         C         1.0       0.0544938638555971  0.7480388548400828  0.33371461125400514          1.0000   
         C         C         1.0       0.05808975946318461           0.7453809240346451 0.3042178633720451 1.0000   
         C         C         1.0       0.06726706435036382           0.7666493426199287 0.2890842510640034 1.0000   
         C         C         1.0       0.0894171946381132  0.8146282848769114  0.34981247162184087          1.0000   
         C         C         1.0       0.06629032051384753           0.8359096496978867 0.34172989398410875          1.0000   
         C         C         1.0       0.04356502620618505           0.8365996462833251 0.35904768946712007          1.0000   
         C         C         1.0       0.022886001641869724          0.8531879676568724 0.35239831897587237          1.0000   
         C         C         1.0       0.023966741999120265          0.869477882559743  0.32826359543323114          1.0000   
         C         C         1.0       0.04675323692129928           0.869890847773148  0.31166152209215053          1.0000   
         C         C         1.0       0.06710437953532032           0.8527876997648547 0.3171339246473728 1.0000   
         C         C         1.0       0.10796650952855466           0.7895904478382291 0.39810279437703217          1.0000   
         C         C         1.0       0.118710780280762   0.7905347581809374  0.4263026013364948 1.0000   
         C         C         1.0       0.1199172373755657  0.8138600207916191  0.44204633652542086          1.0000   
         C         C         1.0       0.10626193695073671           0.8356450771039334 0.4308793422524175 1.0000   
         C         C         1.0       0.09385807048868039           0.835191302661014  0.40269137001848165          1.0000   
         C         C         1.0       0.09518980088514115           0.8120337815338711 0.385093110836807  1.0000   
         C         C         1.0       0.13473608976397924           0.8139905370057112 0.47273298869451996          1.0000   
         C         C         1.0       0.06640524841031667           0.8270421766415889 0.5302799689429193 1.0000   
         C         C         1.0       0.06984901252974184           0.803621438559227  0.5160234721593205 1.0000   
         C         C         1.0       0.09115814601332607           0.7996466084371379 0.4972346109827034 1.0000   
         C         C         1.0       0.1099141882318473  0.8195545790516318  0.4930815614434529 1.0000   
         C         C         1.0       0.10508367560867826           0.8434560766609998 0.508852709947346  1.0000   
         C         C         1.0       0.08433067301782922           0.8459432971779285 0.5282584624935094 1.0000   
         C         C         1.0       0.1567655588418838  0.8362173956998914  0.4722812734247662 1.0000   
         C         C         1.0       0.1682593992530831  0.8427874971221689  0.44692012016049315          1.0000   
         C         C         1.0       0.1889451027763366  0.8598347922689556  0.4456252298403568 1.0000   
         C         C         1.0       0.197056634744483   0.8725607445307071  0.4706782991929507 1.0000   
         C         C         1.0       0.1857487392316946  0.8675347322075021  0.4980175548566771 1.0000   
         C         C         1.0       0.16688063125608701           0.8477314973251507 0.4982137779203535 1.0000   
         C         C         1.0       0.150776925383436   0.7833664620272309  0.516523320339359  1.0000   
         C         C         1.0       0.16474148828558863           0.7629619993902651 0.5282748310606373 1.0000   
         C         C         1.0       0.18103686421543072           0.7484542092078734 0.5097252397325402 1.0000   
         C         C         1.0       0.18336595873692083           0.754418784542693  0.4800888983059115 1.0000   
         C         C         1.0       0.1689687519100462  0.7757407349345421  0.4685981029811978 1.0000   
         C         C         1.0       0.15021187489851792           0.7887541881894226 0.4854027820535668 1.0000   
         H         H         1.0       0.08508533063128618           0.8018243168966233 0.29071489238566156          1.0000   
         H         H         1.0       0.05900832106252752           0.7717123281727878 0.37361246988849667          1.0000   
         H         H         1.0       0.04616513000879459           0.7320776448689064 0.3458141596578752 1.0000   
         H         H         1.0       0.06669130793143115           0.7667402970659101 0.2658377416537548 1.0000   
         H         H         1.0       0.043100448868403876          0.825053723658148  0.3807518571280726 1.0000   
         H         H         1.0       0.005201338962217742          0.8528402237829086 0.36497110926573345          1.0000   
         H         H         1.0       0.04728271410435315           0.879742337860987  0.29007773208879484          1.0000   
         H         H         1.0       0.08284242332341128           0.8513251496605977 0.3032079016962861 1.0000   
         H         H         1.0       0.1080649659448806  0.7731710818327036  0.3838122685930361 1.0000   
         H         H         1.0       0.12718819775684043           0.7723096323031045 0.43296193056925264          1.0000   
         H         H         1.0       0.10656441786797809           0.8549494004490806 0.44194933395622893          1.0000   
         H         H         1.0       0.08393373370662416           0.8531333688816367 0.3951557889486181 1.0000   
         H         H         1.0       0.05717549409070236           0.7873255334831688 0.5177351986941563 1.0000   
         H         H         1.0       0.09369221107592982           0.7796253511998286 0.48774671569322803          1.0000   
         H         H         1.0       0.11808642539646941           0.8596980328094548 0.5070438827102436 1.0000   
         H         H         1.0       0.0824554164994774  0.8656476356920975  0.5384412055575315 1.0000   
         H         H         1.0       0.1639229374139841  0.8309690531530528  0.42714874064009384          1.0000   
         H         H         1.0       0.19852534356899215           0.8613441543585612 0.42503153667989535          1.0000   
         H         H         1.0       0.19372707415159893           0.8779038160551702 0.5169454701528763 1.0000   
         H         H         1.0       0.16197574441497065           0.8391229795872036 0.5197240839549649 1.0000   
         H         H         1.0       0.14321425720793093           0.7986221343557744 0.5308679223098162 1.0000   
         H         H         1.0       0.16449837820190769           0.7601173018457714 0.5525217171148642 1.0000   
         H         H         1.0       0.19681092438283598           0.7439172986397662 0.46476469593105074          1.0000   
         H         H         1.0       0.17311465647366422           0.7815065260737772 0.4454596167096395 1.0000   
         C         C         1.0       0.023215669138197326          0.6082198850868451 0.02423614773729393          1.0000   
         C         C         1.0       0.02316897506883511           0.5962995713866389 0.05244897180868413          1.0000   
         C         C         1.0       0.02612544701989345           0.611874453557658  0.07681432303231464          1.0000   
         C         C         1.0       0.0330826170997486  0.6381915778297917  0.07549351073284617          1.0000   
         C         C         1.0       0.03703557322774298           0.6484804411970494 0.04752039755857043          1.0000   
         C         C         1.0       0.028968843809621364          0.6345949516581038 0.021765561162530346         1.0000   
         H         H         1.0       0.019114444827031656          0.5755928394549231 0.056371322439552035         1.0000   
         H         H         1.0       0.026433840728643538          0.6035192958095305 0.0991810655652187 1.0000   
         H         H         1.0       0.04238748749068287           0.6702293744398573 0.04607458501896717          1.0000   
         H         H         1.0       0.0300840192408708  0.644063541382474   0.9999092241192967 1.0000   
         C         C         1.0       0.4709394979640632  0.6258441846470387  0.12652380709929145          1.0000   
         C         C         1.0       0.4867787254002131  0.6460630910819176  0.11940783699041287          1.0000   
         C         C         1.0       0.47489702588911425           0.6688273427943314 0.1076820826896682 1.0000   
         C         C         1.0       0.4478932102466331  0.6708507202847692  0.10055334714357211          1.0000   
         C         C         1.0       0.4333798915460787  0.6487513810015951  0.10541303922208352          1.0000   
         C         C         1.0       0.44429998936558146           0.6271835612732678 0.11845827295776089          1.0000   
         C         C         1.0       0.03109774247951104           0.6560952481200306 0.10455228576619412          1.0000   
         C         C         1.0       0.051051394777831674          0.6797290250369646 0.1069850662295489 1.0000   
         C         C         1.0       0.04565249431437578           0.7003778398066159 0.12585577312383908          1.0000   
         C         C         1.0       0.06367930938500205           0.7199365175587277 0.12905425020266625          1.0000   
         C         C         1.0       0.08779953773255085           0.7184628234312904 0.11553768575717831          1.0000   
         C         C         1.0       0.09339793036310529           0.6983878892575685 0.09717684394331154          1.0000   
         C         C         1.0       0.07517341056408225           0.6788206075445311 0.09338758518826303          1.0000   
         C         C         1.0       0.028245333444455904          0.6401043203666748 0.1594455144115794 1.0000   
         C         C         1.0       0.036342464165610336          0.6267822651252826 0.18510899200837752          1.0000   
         C         C         1.0       0.06164053516852501           0.6147186371408438 0.18640683679573072          1.0000   
         C         C         1.0       0.07687455087666759           0.6168585303814345 0.1610392300877434 1.0000   
         C         C         1.0       0.06656491736994331           0.6270361341982778 0.13553483376883685          1.0000   
         C         C         1.0       0.04178539180560679           0.639762785217993  0.13398362801316147          1.0000   
         C         C         1.0       0.07143212114635596           0.6041151498393785 0.2184807796811948 1.0000   
         C         C         1.0       0.0736911034385974  0.6776907308902806  0.27015679303284795          1.0000   
         C         C         1.0       0.05217440424461895           0.6608622170979664 0.27323638884214824          1.0000   
         C         C         1.0       0.050677264821404784          0.6382942881254721 0.2557070872654731 1.0000   
         C         C         1.0       0.07201183183796181           0.6301257381994111 0.2384870689971087 1.0000   
         C         C         1.0       0.09329947770975386           0.6468416227148283 0.2366622414627701 1.0000   
         C         C         1.0       0.09401798612290273           0.6704118407075905 0.25145380453216853          1.0000   
         C         C         1.0       0.09930546949189342           0.5886626373467428 0.21506577727590231          1.0000   
         C         C         1.0       0.10338006575147385           0.5690924485109567 0.19347891942266957          1.0000   
         C         C         1.0       0.12721544746128402           0.5555074962805366 0.19219750744073338          1.0000   
         C         C         1.0       0.14640340030501697           0.5597191941629842 0.21288060430805592          1.0000   
         C         C         1.0       0.14231957481206636           0.5771987139465318 0.23560688902119017          1.0000   
         C         C         1.0       0.11956290531724652           0.590736854262629  0.23685998011081918          1.0000   
         C         C         1.0       0.05640962224927725           0.5758389019417531 0.2622318690769977 1.0000   
         C         C         1.0       0.040894776871048796          0.5574830953665149 0.2738697989911085 1.0000   
         C         C         1.0       0.02177246037195512           0.5443784657676255 0.25799497355407713          1.0000   
         C         C         1.0       0.01880263308633041           0.5500802579170327 0.2281124133504146 1.0000   
         C         C         1.0       0.03375893001011508           0.5691596973347387 0.2156487894115719 1.0000   
         C         C         1.0       0.05233253479642389           0.5827932706858909 0.23303841334511866          1.0000   
         H         H         1.0       0.47892990046576617           0.606012403835588  0.134131530852033  1.0000   
         H         H         1.0       0.4866945451050108  0.6850057343022249  0.10223010387535769          1.0000   
         H         H         1.0       0.4385279337776185  0.6877828399799559  0.08944999115749354          1.0000   
         H         H         1.0       0.43238626601289903           0.6100661461394212 0.1208710349354601 1.0000   
         H         H         1.0       0.0271331479613889  0.7045740237446334  0.13675743452033626          1.0000   
         H         H         1.0       0.05982375861457516           0.7371643157175409 0.14344955635022769          1.0000   
         H         H         1.0       0.11143573072484714           0.6961576366345167 0.08480493920743301          1.0000   
         H         H         1.0       0.07962940411365062           0.6619883124021493 0.08059038150891455          1.0000   
         H         H         1.0       0.4996038710055699  0.6380699967384793  0.1742361182469897 1.0000   
         H         H         1.0       0.022866687591054077          0.6262748716193366 0.20397223066946168          1.0000   
         H         H         1.0       0.09724671311504936           0.6108321756523074 0.16139581607893483          1.0000   
         H         H         1.0       0.07745779916928576           0.6247212588929325 0.1147173951699015 1.0000   
         H         H         1.0       0.036141911187752944          0.6698008457243184 0.2846274230652156 1.0000   
         H         H         1.0       0.0320957749906584  0.6277016944965618  0.2557803333142522 1.0000   
         H         H         1.0       0.10899271202242718           0.6424805011335092 0.21807171636566738          1.0000   
         H         H         1.0       0.11165704702266781           0.6821111521034536 0.24726699047706088          1.0000   
         H         H         1.0       0.08964290494589808           0.5660876525254481 0.17464683836851677          1.0000   
         H         H         1.0       0.12925633553457055           0.5396703022554279 0.17598680139238412          1.0000   
         H         H         1.0       0.15346443121541867           0.5771629731555625 0.2555172324008086 1.0000   
         H         H         1.0       0.11837929171624921           0.6033116859071571 0.2568284819921613 1.0000   
         H         H         1.0       0.07117628330308903           0.5850169881122199 0.2760097232930304 1.0000   
         H         H         1.0       0.04383751567231415           0.5539054995118098 0.297309443720049  1.0000   
         H         H         1.0       0.005321128547188794          0.5395328467319612 0.2107838104212799 1.0000   
         H         H         1.0       0.03382618814488385           0.5702517264652817 0.19116659827328103          1.0000   
         C         C         1.0       0.33641213938690656           0.7085768416713498 0.7790482406845576 1.0000   
         C         C         1.0       0.3621645583153491  0.7008103734765576  0.7779644124901534 1.0000   
         C         C         1.0       0.37545886946952617           0.6947305613021775 0.8049449949651579 1.0000   
         C         C         1.0       0.362778957973732   0.6965699992978921  0.8325474720098592 1.0000   
         C         C         1.0       0.33607797128164596           0.701967206315295  0.8323248703244056 1.0000   
         C         C         1.0       0.32315503399253503           0.7068165699167731 0.8057418594610424 1.0000   
         H         H         1.0       0.3732465185655414  0.705800705249204   0.7587184435660722 1.0000   
         H         H         1.0       0.3960576381717642  0.6945148351658358  0.8028016056994376 1.0000   
         H         H         1.0       0.3275454757066582  0.7047784735752681  0.852911409728316  1.0000   
         H         H         1.0       0.3021724213168822  0.7142574204392881  0.8045873055641685 1.0000   
         C         C         1.0       0.36923591851604337           0.7510066328625076 0.8624243312543799 1.0000   
         C         C         1.0       0.38808924401741746           0.730967429617089  0.8564024700155095 1.0000   
         C         C         1.0       0.4107244226201929  0.7372401442597252  0.8405481798843609 1.0000   
         C         C         1.0       0.4138955830693119  0.762385635418696   0.8290149575912784 1.0000   
         C         C         1.0       0.3927119797154209  0.7807803346712424  0.8313734312253187 1.0000   
         C         C         1.0       0.37196206461823933           0.775247680114062  0.8493992108757147 1.0000   
         C         C         1.0       0.3798703691199174  0.7010802902532542  0.8638792836429946 1.0000   
         C         C         1.0       0.4028443626161669  0.6797208953779545  0.869489468597785  1.0000   
         C         C         1.0       0.4245574058658177  0.6858625180617243  0.8873503272353723 1.0000   
         C         C         1.0       0.4446418198346696  0.6684925427462596  0.8895889574510375 1.0000   
         C         C         1.0       0.44302805476568646           0.643344660874234  0.8772942434478085 1.0000   
         C         C         1.0       0.42239265332177595           0.6367503508840535 0.8597943416478258 1.0000   
         C         C         1.0       0.4031486875406534  0.6550770411138341  0.8568900322483858 1.0000   
         C         C         1.0       0.37170886450779245           0.713596560663027  0.9192377044925893 1.0000   
         C         C         1.0       0.35794455382700197           0.71029897452614   0.9462300033847021 1.0000   
         C         C         1.0       0.3427196046680207  0.68830393128324    0.9493735365855701 1.0000   
         C         C         1.0       0.34078914052227977           0.6696838201316516 0.9255637567404559 1.0000   
         C         C         1.0       0.3506605636436778  0.6762937071214888  0.8986355905630152 1.0000   
         C         C         1.0       0.3661473978994328  0.698096972022816   0.894544447417018  1.0000   
         C         C         1.0       0.3280670044243908  0.6831063236834962  0.9782618993762293 1.0000   
         C         C         1.0       0.38699042976505443           0.6455076977371927 0.03929959918452423          1.0000   
         C         C         1.0       0.38874688399000706           0.6723671626065391 0.03264962334903395          1.0000   
         C         C         1.0       0.370017966615703   0.6835666224509499  0.01404697278258287          1.0000   
         C         C         1.0       0.35002576510605926           0.6680503684577871 7.504646266154325e-05        1.0000   
         C         C         1.0       0.3537310421446666  0.6420226882061805  0.0014874777379672022        1.0000   
         C         C         1.0       0.37081780937861375           0.6303044536443703 0.022074690929883335         1.0000   
         C         C         1.0       0.299338349144067   0.668492410465069   0.9776352547730014 1.0000   
         C         C         1.0       0.28538433414899295           0.6686513648489418 0.9512677146547298 1.0000   
         C         C         1.0       0.2607930667239619  0.6581116321676471  0.9489598750104922 1.0000   
         C         C         1.0       0.2497744309025417  0.6451925483161655  0.9720312768594699 1.0000   
         C         C         1.0       0.26314514874457795           0.6439072620022694 0.9996931129714663 1.0000   
         C         C         1.0       0.2881550970376519  0.6563812678706639  0.0029548854972702367        1.0000   
         C         C         1.0       0.314788087079037   0.7127310325128721  0.025690325590475672         1.0000   
         C         C         1.0       0.3004594440617231  0.73218887445229    0.03816821881108762          1.0000   
         C         C         1.0       0.28957472061491285           0.7511258319842098 0.02091934807459304          1.0000   
         C         C         1.0       0.2929976987352892  0.7493409125149642  0.9910744947356955 1.0000   
         C         C         1.0       0.30574872671706044           0.7283885323980822 0.9782438862385282 1.0000   
         C         C         1.0       0.3175474959235069  0.7094005234369808  0.9950918802038236 1.0000   
         H         H         1.0       0.3526493436426658  0.7443313656511013  0.8771784679414572 1.0000   
         H         H         1.0       0.4256342747766643  0.7215100524829904  0.8367094052883085 1.0000   
         H         H         1.0       0.43163715527522784           0.7674918378488826 0.8159266796554291 1.0000   
         H         H         1.0       0.3561918795248565  0.7893317759710645  0.8531130070704115 1.0000   
         H         H         1.0       0.42418875447519944           0.7044006983953283 0.8981361918061377 1.0000   
         H         H         1.0       0.4625064157104713  0.6731375210509359  0.902933505083424  1.0000   
         H         H         1.0       0.41964070611528587           0.615978801220189  0.8535229019528912 1.0000   
         H         H         1.0       0.38617600526842727           0.6455224392767439 0.8465670561207067 1.0000   
         H         H         1.0       0.3862580992313936  0.730043259243906   0.9174201210617714 1.0000   
         H         H         1.0       0.3621402980076411  0.7248142832889757  0.9640773562181721 1.0000   
         H         H         1.0       0.3297235438921903  0.650942213370085   0.9264363394507237 1.0000   
         H         H         1.0       0.3462880688366347  0.6647162439547756  0.8796776650634128 1.0000   
         H         H         1.0       0.40344921829502517           0.6852450326975975 0.04206119046796627          1.0000   
         H         H         1.0       0.3705485116377269  0.7045990946159969  0.011974757666608854         1.0000   
         H         H         1.0       0.3413273787816053  0.6302787060983844  0.9875962768027093 1.0000   
         H         H         1.0       0.37231732168874726           0.6099795629554079 0.02250753472668159          1.0000   
         H         H         1.0       0.2920691755169711  0.6808954556009037  0.9322302217938244 1.0000   
         H         H         1.0       0.25298476574188666           0.6593474895992705 0.9272705610069486 1.0000   
         H         H         1.0       0.2540533928525147  0.6345014196095368  0.017800456772400147         1.0000   
         H         H         1.0       0.29908022509399274           0.6550354450121522 0.023786084107814267         1.0000   
         H         H         1.0       0.322463836728534   0.6960784895728748  0.04027324776259422          1.0000   
         H         H         1.0       0.2964782677633784  0.7336781208430598  0.061995835609172587         1.0000   
         H         H         1.0       0.2849384546583274  0.7639972872289692  0.9766325518196777 1.0000   
         H         H         1.0       0.3049869585964972  0.7292472323606375  0.9549425143791767 1.0000   
         C         C         1.0       0.052434365924252525          0.5611346379648996 0.9812674931486409 1.0000   
         C         C         1.0       0.07290737622610605           0.5786126068839301 0.9854749860909524 1.0000   
         C         C         1.0       0.09561386771059095           0.5756353040515281 0.9705140821437152 1.0000   
         C         C         1.0       0.10111190509980446           0.5519684486700627 0.9558159095878219 1.0000   
         C         C         1.0       0.07958911779174392           0.5351704586358148 0.9508939585446383 1.0000   
         C         C         1.0       0.05567489819278458           0.5410367144093279 0.9626572727254129 1.0000   
         H         H         1.0       0.07210894943576944           0.5979553689120158 0.9986805958954782 1.0000   
         H         H         1.0       0.10970118238138118           0.5909510495367921 0.971479932590151  1.0000   
         H         H         1.0       0.08218154408083128           0.5180974530818715 0.939059345912843  1.0000   
         H         H         1.0       0.03906048027691885           0.5287367927052713 0.9559790317602538 1.0000   
         C         C         1.0       0.13465848322544785           0.5063314291686112 0.9819200618972164 1.0000   
         C         C         1.0       0.14010747979556573           0.5145174666324277 0.9533358547557285 1.0000   
         C         C         1.0       0.1600065993383151  0.5014643099635554  0.93764617344247   1.0000   
         C         C         1.0       0.1427593047844787  0.9702469921991259  0.9447692725978791 1.0000   
         C         C         1.0       0.13640297199996101           0.9659789206293206 0.9740897445118185 1.0000   
         C         C         1.0       0.12510213827967448           0.9867610568689084 0.9906555868103705 1.0000   
         C         C         1.0       0.12865310782676737           0.5431746261378261 0.9426897594750181 1.0000   
         C         C         1.0       0.15463267596072522           0.5603393008597495 0.9520688102628854 1.0000   
         C         C         1.0       0.17320511451908693           0.5661103469645705 0.9316569082463667 1.0000   
         C         C         1.0       0.19505227446022402           0.5791875550331711 0.9387667433042123 1.0000   
         C         C         1.0       0.20163754128910785           0.5852435355917879 0.9679703271265658 1.0000   
         C         C         1.0       0.18334970121774302           0.5791857443754093 0.9889848295949171 1.0000   
         C         C         1.0       0.16024990670589828           0.5673636600849247 0.9807433419089006 1.0000   
         C         C         1.0       0.116995625447137   0.5255206018752658  0.8889860949784872 1.0000   
         C         C         1.0       0.1053769834160454  0.5289503516849937  0.8615027716236645 1.0000   
         C         C         1.0       0.09546587078057518           0.5540895410261542 0.8532351980396603 1.0000   
         C         C         1.0       0.10275564499587893           0.5757144380076772 0.8708534754629175 1.0000   
         C         C         1.0       0.11486459675917594           0.5716183457035747 0.897793712042286  1.0000   
         C         C         1.0       0.12210027002209953           0.5458948067100673 0.9079236347151042 1.0000   
         C         C         1.0       0.07537271840592358           0.5592348642228405 0.8233173667833661 1.0000   
         C         C         1.0       0.1385356809657585  0.5792927287294561  0.7625151434243621 1.0000   
         C         C         1.0       0.13441491954782356           0.5533811380415369 0.7694607752673946 1.0000   
         C         C         1.0       0.11453599057434999           0.5467953934341577 0.7883440314957307 1.0000   
         C         C         1.0       0.09830113581533298           0.5662728610993183 0.8003522077861998 1.0000   
         C         C         1.0       0.10380866079748349           0.5927019959969507 0.7944508385082377 1.0000   
         C         C         1.0       0.12459294712613234           0.5987223793281463 0.7754113751261823 1.0000   
         C         C         1.0       0.052307666789647635          0.5795766763544694 0.8284775009523874 1.0000   
         C         C         1.0       0.04131364537234    0.5810868136396065  0.8565240602237323 1.0000   
         C         C         1.0       0.020909399854988284          0.5978142915977549 0.8621420404227058 1.0000   
         C         C         1.0       0.011897447079151328          0.6162539365870566 0.8415029472743097 1.0000   
         C         C         1.0       0.02335617176855808           0.6156502366924353 0.8139284515626135 1.0000   
         C         C         1.0       0.04212925868313043           0.5970714944549992 0.8068340339923902 1.0000   
         C         C         1.0       0.05206010584670306           0.5312439042596281 0.7841834904293801 1.0000   
         C         C         1.0       0.034335382992417916          0.5123310610788071 0.7743997612862337 1.0000   
         C         C         1.0       0.024689190986289262          0.494679149186131  0.7946432957815607 1.0000   
         C         C         1.0       0.031984257081493   0.4977491827293523  0.8254860791493602 1.0000   
         C         C         1.0       0.048032801942346534          0.5170384321057702 0.832784532832595  1.0000   
         C         C         1.0       0.05922840018651077           0.5341165435403131 0.8133246935759825 1.0000   
         H         H         1.0       0.1241707750684382  0.5192168760971282  0.99818679957675   1.0000   
         H         H         1.0       0.1670181477457661  0.5070675295202836  0.9166068947723015 1.0000   
         H         H         1.0       0.15291833142239827           0.9553597589408004 0.9312273902433271 1.0000   
         H         H         1.0       0.12251627857265322           0.9852783004239526 0.014313266686053084         1.0000   
         H         H         1.0       0.1706250334013081  0.5606102776528912  0.9076332072708652 1.0000   
         H         H         1.0       0.20906634482865402           0.5842448099189501 0.9230460842664063 1.0000   
         H         H         1.0       0.1862778225481679  0.5873201620585818  0.011460513514766808         1.0000   
         H         H         1.0       0.14760186435552194           0.560390539794708  0.9986323777485656 1.0000   
         H         H         1.0       0.12148396954620778           0.5056742903093416 0.894015087795874  1.0000   
         H         H         1.0       0.10144860288235684           0.5117923652536686 0.8478137085777262 1.0000   
         H         H         1.0       0.09695942061174959           0.5951734612384673 0.8647700553580489 1.0000   
         H         H         1.0       0.11635602104405895           0.5879670878856094 0.9123822570695612 1.0000   
         H         H         1.0       0.14378423577368638           0.5370874007080482 0.7585110497824145 1.0000   
         H         H         1.0       0.109335478237514   0.526447507842198   0.7940453603113352 1.0000   
         H         H         1.0       0.09242345399368164           0.6077976317141006 0.8039869670367229 1.0000   
         H         H         1.0       0.1291939727281266  0.6200788284388723  0.7704490251565099 1.0000   
         H         H         1.0       0.047860448939386034          0.5690786184656812 0.8736969555200906 1.0000   
         H         H         1.0       0.014030318657178072          0.5992472481302475 0.8846173682541206 1.0000   
         H         H         1.0       0.01580050243171663           0.6274296476112561 0.7952106089769788 1.0000   
         H         H         1.0       0.04933819283574475           0.5947224010337857 0.7844939630169742 1.0000   
         H         H         1.0       0.057552936239332726          0.5467248807307862 0.7693901568629117 1.0000   
         H         H         1.0       0.028358199937793333          0.5108183448851246 0.7505998629251219 1.0000   
         H         H         1.0       0.026267736349353088          0.48450693214559565          0.8421393331131575 1.0000   
         H         H         1.0       0.05147720815177728           0.5183075039553258 0.8556478900438542 1.0000   
         C         C         1.0       0.31621645272922094           0.678411742566094  0.7151190915427651 1.0000   
         C         C         1.0       0.33294128168869125           0.6574514262450517 0.7107825452128855 1.0000   
         C         C         1.0       0.323599163267017   0.6315612768712788  0.7048423262516134 1.0000   
         C         C         1.0       0.2966116994545377  0.6287495765811699  0.6992831162936669 1.0000   
         C         C         1.0       0.2802729597304571  0.6515347475382275  0.7020551195659642 1.0000   
         C         C         1.0       0.28933320952029035           0.6754471025177692 0.7115600428033533 1.0000   
         H         H         1.0       0.35396378010048857           0.6600548091577709 0.7153354969811833 1.0000   
         H         H         1.0       0.3374758152906158  0.616641361127127   0.7008135452041544 1.0000   
         H         H         1.0       0.2596204666547556  0.6511930113907365  0.6961368552992587 1.0000   
         H         H         1.0       0.2751159113133176  0.6920188445568595  0.7120732163530592 1.0000   
         C         C         1.0       0.2491298977002648  0.6041460533834649  0.7301210872734104 1.0000   
         C         C         1.0       0.2537666981534807  0.5975389720074621  0.7015396173834948 1.0000   
         C         C         1.0       0.2341868856906361  0.584785730822428   0.6859330339042012 1.0000   
         C         C         1.0       0.21211024483655322           0.5763948754084056 0.6995826446043117 1.0000   
         C         C         1.0       0.20798985629486808           0.5821736281793852 0.728141347406787  1.0000   
         C         C         1.0       0.22582557875115034           0.5968289977141216 0.7434776734427976 1.0000   
         C         C         1.0       0.2820464103531288  0.6027927004520252  0.6870254264974736 1.0000   
         C         C         1.0       0.29621154873971434           0.5763031193133686 0.6932689033698322 1.0000   
         C         C         1.0       0.29002377811848623           0.5535444935043883 0.6752070469457353 1.0000   
         C         C         1.0       0.30056090025228344           0.5296836307135884 0.6829011075800777 1.0000   
         C         C         1.0       0.3145922325795511  0.5258968696141179  0.709556119542603  1.0000   
         C         C         1.0       0.3174767907145056  0.5471478958497834  0.7280939143062305 1.0000   
         C         C         1.0       0.3082462523449254  0.5714563936151128  0.7199013024505914 1.0000   
         C         C         1.0       0.2612838651841687  0.6191905756297958  0.6348460402552573 1.0000   
         C         C         1.0       0.26471405910303564           0.6317619537093425 0.6080033242558512 1.0000   
         C         C         1.0       0.28915992968269394           0.6329160943488297 0.5964406961361264 1.0000   
         C         C         1.0       0.31043614639191447           0.6190157324173481 0.6110355366031669 1.0000   
         C         C         1.0       0.3064618943189163  0.6070229984705626  0.6369733731502274 1.0000   
         C         C         1.0       0.28202990525330546           0.6101356408261296 0.6513566586201386 1.0000   
         C         C         1.0       0.2946646879223602  0.6511114813065749  0.5682158615866315 1.0000   
         C         C         1.0       0.29141288460303    0.5918584106000779  0.4976559969194264 1.0000   
         C         C         1.0       0.2690045902241997  0.6038646491039803  0.505548718572744  1.0000   
         C         C         1.0       0.2689887004887535  0.6213006973085904  0.5292232215690766 1.0000   
         C         C         1.0       0.29249365290674234           0.6285786377165108 0.5431526869950623 1.0000   
         C         C         1.0       0.31522627534450637           0.6140175685232823 0.5374784615752447 1.0000   
         C         C         1.0       0.31425462060956644           0.5958381973749249 0.5146179156557772 1.0000   
         C         C         1.0       0.3234043807073384  0.6664548635727261  0.5731397290811218 1.0000   
         C         C         1.0       0.32914865248496683           0.677363045265853  0.6005735126866333 1.0000   
         C         C         1.0       0.3514527230421385  0.6926725652948329  0.606655904325719  1.0000   
         C         C         1.0       0.36856084471746575           0.6975638689551382 0.5831772425264211 1.0000   
         C         C         1.0       0.36312587307187316           0.6859994814565655 0.5555966513380455 1.0000   
         C         C         1.0       0.3400267920435786  0.6723415252432422  0.5508627463937963 1.0000   
         C         C         1.0       0.27405393071347134           0.6830378449258269 0.5321571811130886 1.0000   
         C         C         1.0       0.25664500756547814           0.7026149090838062 0.5231911895123466 1.0000   
         C         C         1.0       0.24282667792364246           0.7168115757598225 0.5435525693896143 1.0000   
         C         C         1.0       0.24682358522751122           0.7114105311244568 0.5736122969744665 1.0000   
         C         C         1.0       0.2636426650662508  0.6914480386040446  0.5820490161785042 1.0000   
         C         C         1.0       0.27675272478444085           0.6758083198248662 0.5614415905552583 1.0000   
         H         H         1.0       0.2650480790137539  0.6125962900516909  0.7440952822273262 1.0000   
         H         H         1.0       0.23871915062367766           0.579964054606102  0.6628726518302184 1.0000   
         H         H         1.0       0.19757140183560215           0.5669202836761695 0.6845706543904805 1.0000   
         H         H         1.0       0.2222067766100259  0.5999173916443766  0.7674443295915321 1.0000   
         H         H         1.0       0.276054551638445   0.5557935229172825  0.6581989879843613 1.0000   
         H         H         1.0       0.29827900467233737           0.5141992344027061 0.6663731817860361 1.0000   
         H         H         1.0       0.329245879337188   0.5468072745081053  0.7480018827783486 1.0000   
         H         H         1.0       0.3109045106965986  0.5871087097440694  0.7362499581813046 1.0000   
         H         H         1.0       0.24267663643053045           0.6203170276425393 0.6441325738964664 1.0000   
         H         H         1.0       0.2479708158729912  0.642646533811077   0.5978714511377712 1.0000   
         H         H         1.0       0.32983474380595734           0.614684760864852  0.599984179320997  1.0000   
         H         H         1.0       0.32276959510648934           0.5946322652124949 0.6452678201831282 1.0000   
         H         H         1.0       0.2521988462540146  0.6030737066181965  0.49006154751141895          1.0000   
         H         H         1.0       0.2510990425073783  0.6333275439263546  0.5338333600446987 1.0000   
         H         H         1.0       0.3341378180613755  0.6181654782048248  0.547654978275838  1.0000   
         H         H         1.0       0.3318461992817249  0.5861351754396865  0.5094458017935859 1.0000   
         H         H         1.0       0.3144772093340534  0.675179073037374   0.6179513384538992 1.0000   
         H         H         1.0       0.3554298525055111  0.7005701864664178  0.6278767681872456 1.0000   
         H         H         1.0       0.37761691445734913           0.6894497666016547 0.5376772767787957 1.0000   
         H         H         1.0       0.3379292870446204  0.6625485712677699  0.529470687354002  1.0000   
         H         H         1.0       0.2844768139747301  0.671442714694253   0.5158864275006547 1.0000   
         H         H         1.0       0.2547923231874372  0.7045274098091733  0.49904974909698646          1.0000   
         H         H         1.0       0.23337576741399269           0.7221197968578376 0.5884698544669218 1.0000   
         H         H         1.0       0.2658815799757651  0.6873249724196229  0.6049314774263138 1.0000   
         C         C         1.0       0.41404751424387426           0.92935192111967   0.47127849296522745          1.0000   
         C         C         1.0       0.3976727118273285  0.9103693409028268  0.4586220228384471 1.0000   
         C         C         1.0       0.37262869065455534           0.9166069671634384 0.4484764879992345 1.0000   
         C         C         1.0       0.3639265067393348  0.9423324817271074  0.44708968074789374          1.0000   
         C         C         1.0       0.38036332306778986           0.9621130594518343 0.4584188016768294 1.0000   
         C         C         1.0       0.40443354397827763           0.9547889556054807 0.47148203190153265          1.0000   
         H         H         1.0       0.402893404024601   0.8908804175904066  0.45507285315361556          1.0000   
         H         H         1.0       0.3591811236317403  0.9021538863842182  0.4378085992033751 1.0000   
         H         H         1.0       0.3759219742045431  0.9834406456187398  0.45525210376491454          1.0000   
         H         H         1.0       0.41657190040464753           0.9703848223270866 0.4799396922498266 1.0000   
         C         C         1.0       0.32216931118941017           0.9796417549277913 0.47849997987799464          1.0000   
         C         C         1.0       0.32239277894904533           0.9760700082626128 0.4473187061877742 1.0000   
         C         C         1.0       0.30772205749331755           0.9937219904304568 0.42988319905525246          1.0000   
         C         C         1.0       0.2895068471096668  0.520040177107538   0.42445711248463724          1.0000   
         C         C         1.0       0.2896751990225683  0.5278033084638454  0.4541417210831331 1.0000   
         C         C         1.0       0.2995335037946111  0.5106727377685422  0.4751197564788081 1.0000   
         C         C         1.0       0.33608941016762733           0.9497319660346337 0.4347658858174543 1.0000   
         C         C         1.0       0.3132185624664647  0.9281743819107693  0.4412261643694197 1.0000   
         C         C         1.0       0.29116131046258875           0.9285385760675089 0.4217310693837303 1.0000   
         C         C         1.0       0.27018463728810416           0.9113263746382763 0.4256726399331367 1.0000   
         C         C         1.0       0.270183914662394   0.8959699214402542  0.45232907753098595          1.0000   
         C         C         1.0       0.29025838879450666           0.8991973019130846 0.4733513405260071 1.0000   
         C         C         1.0       0.3118381212683865  0.9135100728477742  0.46624690428783444          1.0000   
         C         C         1.0       0.35781623667301177           0.9745646309426906 0.3909507229030473 1.0000   
         C         C         1.0       0.3723030734832387  0.9735794592699051  0.36486593126794103          1.0000   
         C         C         1.0       0.37402610356365235           0.9502605854853227 0.34722140723334466          1.0000   
         C         C         1.0       0.36047041068436503           0.928766404423187  0.35647199308356003          1.0000   
         C         C         1.0       0.34559552756026535           0.9300292699376068 0.38187630405372125          1.0000   
         C         C         1.0       0.3449012834743086  0.9514848342162332  0.40014487104562546          1.0000   
         C         C         1.0       0.389921250108909   0.94955564742357    0.3178691351062261 1.0000   
         C         C         1.0       0.3286926367412858  0.9752210332618906  0.25281475595413594          1.0000   
         C         C         1.0       0.34061187008598887           0.9929006272990534 0.27131699753930366          1.0000   
         C         C         1.0       0.3584326459474556  0.9849054675054364  0.2923185519000725 1.0000   
         C         C         1.0       0.3661781044904206  0.9580474196040537  0.2952522558619269 1.0000   
         C         C         1.0       0.3525383438133644  0.940304644262041   0.27724172412751563          1.0000   
         C         C         1.0       0.3352412554323137  0.9491783697154897  0.25533771270147493          1.0000   
         C         C         1.0       0.4037538776436585  0.9222681361146737  0.3114981794605965 1.0000   
         C         C         1.0       0.4157354588487317  0.9102576957960467  0.3357914575711246 1.0000   
         C         C         1.0       0.43502967280100097           0.8912250979405488 0.33314216147860787          1.0000   
         C         C         1.0       0.44374124039560336           0.8830072216839553 0.30645373951409677          1.0000   
         C         C         1.0       0.4314320884012458  0.8936450096547497  0.28086446220050887          1.0000   
         C         C         1.0       0.4111811800213258  0.9125023661744749  0.284231798231389  1.0000   
         C         C         1.0       0.4217869855253743  0.9766785295128338  0.2884150208117849 1.0000   
         C         C         1.0       0.4451614007009459  0.9896759896684358  0.2824483959399954 1.0000   
         C         C         1.0       0.4637173882475337  0.9920613887797475  0.3044539277482376 1.0000   
         C         C         1.0       0.4578408100282383  0.9852860796044088  0.33275028440776355          1.0000   
         C         C         1.0       0.4350585135752157  0.9721140053474234  0.33959973363861806          1.0000   
         C         C         1.0       0.41613365856861756           0.9672036622917404 0.3166723430744113 1.0000   
         H         H         1.0       0.332407046241197   0.9657125582757505  0.49325921420624075          1.0000   
         H         H         1.0       0.3061123315911952  0.9908402189566434  0.40525813744759853          1.0000   
         H         H         1.0       0.2817769378466921  0.5326905536042398  0.4076778692169541 1.0000   
         H         H         1.0       0.30079557297661624           0.5145694512138069 0.49811081311497823          1.0000   
         H         H         1.0       0.2899825362689308  0.9439968608254689  0.4034455017250115 1.0000   
         H         H         1.0       0.25327326005757966           0.9082061998255117 0.4108672103922185 1.0000   
         H         H         1.0       0.2884980407006552  0.8874986195583119  0.493690675681799  1.0000   
         H         H         1.0       0.3281328106725122  0.9139746688719749  0.4817095001230647 1.0000   
         H         H         1.0       0.3579828873036673  0.9930291484628208  0.40443626208486666          1.0000   
         H         H         1.0       0.3830092527427462  0.9923379936158153  0.36071390771134726          1.0000   
         H         H         1.0       0.36306455592904746           0.90962677796412   0.34549600661456925          1.0000   
         H         H         1.0       0.33755599848617274           0.9125348344472166 0.3890664640140404 1.0000   
         H         H         1.0       0.33733118119213273           0.013800285556292202         0.2710065995910832 1.0000   
         H         H         1.0       0.36597382355574    0.0013824590562476757        0.30562888606533234          1.0000   
         H         H         1.0       0.35896332805671627           0.9192198427407313 0.2775525373524327 1.0000   
         H         H         1.0       0.32825040783277537           0.9347157254659965 0.24100108179781984          1.0000   
         H         H         1.0       0.41207643877936573           0.9156220604955404 0.35840160145286876          1.0000   
         H         H         1.0       0.4433423079268631  0.8816969432157852  0.35303292717272017          1.0000   
         H         H         1.0       0.4368185348416199  0.8860431713552878  0.258921249192641  1.0000   
         H         H         1.0       0.404368996711921   0.9224336038249141  0.26563202793773283          1.0000   
         H         H         1.0       0.41037595066661137           0.9745386364428771 0.2683931885260995 1.0000   
         H         H         1.0       0.44827793559497403           0.9949818556880878 0.25939178858056744          1.0000   
         H         H         1.0       0.4698731666326988  0.9882525272378337  0.3519176076083629 1.0000   
         H         H         1.0       0.4318106677728817  0.9667597063206728  0.3613999976737391 1.0000   
         C         C         1.0       0.21176282163108176           0.8618894553235542 0.2791762775421815 1.0000   
         C         C         1.0       0.1879735726469296  0.8759785045306254  0.27294103368621586          1.0000   
         C         C         1.0       0.18492498091279158           0.8884702083673508 0.24667561232042565          1.0000   
         C         C         1.0       0.20625468922485274           0.8898328041165433 0.22676922575199343          1.0000   
         C         C         1.0       0.2269478056396135  0.8718781696984562  0.2312702669313921 1.0000   
         C         C         1.0       0.23034367727036117           0.8583499994937241 0.257378777732229  1.0000   
         H         H         1.0       0.17296863997480677           0.8788382597818348 0.2888556615203757 1.0000   
         H         H         1.0       0.1691814951397486  0.9008292742023297  0.24214453736917327          1.0000   
         H         H         1.0       0.24023528494161067           0.8689892692646904 0.21221818451622626          1.0000   
         H         H         1.0       0.2481131128807883  0.8462407482452377  0.2620398117746355 1.0000   
         C         C         1.0       0.24648260881399037           0.9325508198501138 0.2248872529201549 1.0000   
         C         C         1.0       0.2326930707810347  0.9267988918516299  0.19755324300139512          1.0000   
         C         C         1.0       0.2413372685289946  0.9387398506727112  0.17219827782514718          1.0000   
         C         C         1.0       0.2651961520184151  0.9512845458048255  0.17126741317246766          1.0000   
         C         C         1.0       0.2790998596541243  0.9569183165926834  0.1983806150424697 1.0000   
         C         C         1.0       0.26811617919147773           0.9480037072618638 0.22571775612998218          1.0000   
         C         C         1.0       0.2052482693006205  0.911657604115034   0.20014810842416875          1.0000   
         C         C         1.0       0.18768981181892855           0.9372673192181841 0.20596093446373773          1.0000   
         C         C         1.0       0.17099982251248744           0.9483945885194723 0.18347349281985106          1.0000   
         C         C         1.0       0.15428442507554452           0.9695598748746028 0.1890225114426815 1.0000   
         C         C         1.0       0.15473324868909646           0.9806326808728447 0.21766418688297323          1.0000   
         C         C         1.0       0.17085363610869042           0.9709674630821202 0.24059927288658278          1.0000   
         C         C         1.0       0.18667469124815658           0.9505391496158805 0.2329389210166395 1.0000   
         C         C         1.0       0.21871245301739162           0.8838631405485604 0.15503119972334184          1.0000   
         C         C         1.0       0.21295056453079997           0.871978493508413  0.12799260683640515          1.0000   
         C         C         1.0       0.18743574360788035           0.8652036276712599 0.11999659099540612          1.0000   
         C         C         1.0       0.16747042808063822           0.8741627342205358 0.13953301024542844          1.0000   
         C         C         1.0       0.17300927098530197           0.888893661503054  0.16509472074479997          1.0000   
         C         C         1.0       0.19976998810385355           0.893752221102265  0.17276192903477985          1.0000   
         C         C         1.0       0.17840209057397602           0.8489564077517667 0.09125074826254245          1.0000   
         C         C         1.0       0.16492235553611614           0.9175457492145145 0.032007673942230794         1.0000   
         C         C         1.0       0.18963117481444006           0.9082037151504232 0.03692394126596458          1.0000   
         C         C         1.0       0.19460769157020602           0.8860096978953462 0.054232339544135366         1.0000   
         C         C         1.0       0.17442073418968415           0.873273185369167  0.06988877504098089          1.0000   
         C         C         1.0       0.1500245754275456  0.8854492360970042  0.06768456016323804          1.0000   
         C         C         1.0       0.144040621550003   0.90691666414569    0.04805008184657142          1.0000   
         C         C         1.0       0.15392277320746292           0.8296464470704897 0.094477318442016  1.0000   
         C         C         1.0       0.15218543805219023           0.8146598389851578 0.12019458525726619          1.0000   
         C         C         1.0       0.13364336730275242           0.7960919971743589 0.12262408049963469          1.0000   
         C         C         1.0       0.11820742911950706           0.788010021251116  0.09887329736079672          1.0000   
         C         C         1.0       0.12140771724059402           0.8012330711881274 0.07227937607395793          1.0000   
         C         C         1.0       0.13733874073707883           0.8227211025287675 0.07006266048734897          1.0000   
         C         C         1.0       0.20092885593530244           0.8224799346356176 0.04823188097534532          1.0000   
         C         C         1.0       0.21443732506464855           0.8012134758819158 0.037745418841884856         1.0000   
         C         C         1.0       0.2289198078022939  0.7865804773301026  0.056678608200575936         1.0000   
         C         C         1.0       0.22913271868219576           0.7924736306999708 0.08596986990471282          1.0000   
         C         C         1.0       0.21661934305952651           0.81356114946365   0.09728570918877114          1.0000   
         C         C         1.0       0.20099493134863472           0.8281447452660556 0.07851787620093666          1.0000   
         H         H         1.0       0.2414461468162563  0.9248245165314124  0.24468157091584758          1.0000   
         H         H         1.0       0.22977970657996785           0.9399533238317438 0.15270113145875353          1.0000   
         H         H         1.0       0.27290455466091146           0.9582880928359141 0.15031394579641344          1.0000   
         H         H         1.0       0.27684823659618285           0.9491806813319712 0.24726242778672158          1.0000   
         H         H         1.0       0.17219428697254913           0.9415554147127871 0.161438506711358  1.0000   
         H         H         1.0       0.13967525633331215           0.9768265241731636 0.17284390874903766          1.0000   
         H         H         1.0       0.17014204677407554           0.9758443381011145 0.26294705288440207          1.0000   
         H         H         1.0       0.19989394538615618           0.9421573243155404 0.250553823742568  1.0000   
         H         H         1.0       0.23918942023959916           0.8863743119261098 0.16159302931161082          1.0000   
         H         H         1.0       0.22644925967595408           0.8681752096079608 0.10993781971927098          1.0000   
         H         H         1.0       0.14703749015653964           0.872964245732847  0.13097086437683397          1.0000   
         H         H         1.0       0.15816757113924293           0.8964541781367845 0.17901000133152026          1.0000   
         H         H         1.0       0.20643627738372675           0.9155691568103419 0.0271499180253427 1.0000   
         H         H         1.0       0.21450578420686103           0.8805096651156871 0.05687692774321554          1.0000   
         H         H         1.0       0.13584682813117013           0.878220616919508  0.08326912691595087          1.0000   
         H         H         1.0       0.12329800205294729           0.9144499528442235 0.04875194255544915          1.0000   
         H         H         1.0       0.16514331102174287           0.8186183929438906 0.13876666356515563          1.0000   
         H         H         1.0       0.13215591379145625           0.7852266293851432 0.1427989223410664 1.0000   
         H         H         1.0       0.10761656481123942           0.7985805588808425 0.05394509074590023          1.0000   
         H         H         1.0       0.14127330657958495           0.8312355553467043 0.04768036450381866          1.0000   
         H         H         1.0       0.18805112916413397           0.8343349210916593 0.031943952551521534         1.0000   
         H         H         1.0       0.21303465641032254           0.7971748290564611 0.014288471555177986         1.0000   
         H         H         1.0       0.24140321176237114           0.7786102310446018 0.09922806459403027          1.0000   
         H         H         1.0       0.21866495996603483           0.8159936582954221 0.12158377175875527          1.0000   
         C         C         1.0       0.30627706587096104           0.9720675013577227 0.1979074450433949 1.0000   
         C         C         1.0       0.3135711672035198  0.9880130326048429  0.22643211151647588          1.0000   
         H         H         1.0       0.3215648325274908  0.9582809043886373  0.19074320952112553          1.0000   
         H         H         1.0       0.3056930237121719  0.9862113869836251  0.17917639474660246          1.0000   
         H         H         1.0       0.296103266185419   0.9970710291219056  0.23607652080657465          1.0000   
         H         H         1.0       0.323874458688808   0.004583783192743329         0.21620284343010032          1.0000   
         C         C         1.0       0.29538903296254787           0.5746457023327657 0.470547614225192  1.0000   
         C         C         1.0       0.27578628247182047           0.5524664810399285 0.4644310777644028 1.0000   
         H         H         1.0       0.2958148981833868  0.5852026424066025  0.45019695101207174          1.0000   
         H         H         1.0       0.31527652547197066           0.566467419343037  0.47093047940239063          1.0000   
         H         H         1.0       0.26164606985245137           0.5599858671910511 0.44894512083104404          1.0000   
         H         H         1.0       0.2621557237319791  0.5488225770341644  0.48246458457571245          1.0000   
         C         C         1.0       0.1412852583561159  0.9397679992899316  0.9893278144368586 1.0000   
         C         C         1.0       0.1622773652573111  0.9419449642372789  0.013333922740518494         1.0000   
         H         H         1.0       0.12242827534229361           0.9327453676902313 0.9973075128326159 1.0000   
         H         H         1.0       0.146725144252287   0.924633585198701   0.9749330607309251 1.0000   
         H         H         1.0       0.16075859338114465           0.9594522662554129 0.028157359498260037         1.0000   
         H         H         1.0       0.18093939981791637           0.9466442985422988 0.0013930737084072965        1.0000   
         C         C         1.0       0.18441009703721617           0.5701904061872384 0.7432945611185726 1.0000   
         C         C         1.0       0.1601763861115695  0.5881138616261854  0.7408929751941054 1.0000   
         H         H         1.0       0.1800991695282317  0.5493243731938663  0.7340834228979866 1.0000   
         H         H         1.0       0.19179650677830595           0.5669628192134671 0.766715067388211  1.0000   
         H         H         1.0       0.1534601806204129  0.5868806740259251  0.7171784658430419 1.0000   
         H         H         1.0       0.1665228810114905  0.6087362479438989  0.7433358012770703 1.0000   
         C         C         1.0       0.27521257731830095           0.7738026912652369 0.03636591794326436          1.0000   
         C         C         1.0       0.24711607551989592           0.7656905315095178 0.0461919133195628 1.0000   
         H         H         1.0       0.273712059488154   0.7908895620404526  0.01863153122295462          1.0000   
         H         H         1.0       0.28689431051554737           0.781844019568646  0.05538634176514289          1.0000   
         H         H         1.0       0.23765906302896797           0.754417754559324  0.027108149219724893         1.0000   
         H         H         1.0       0.2486385708175259  0.7502378738819475  0.06405739718143207          1.0000   
         C         C         1.0       0.3266859613980444  0.705623433956336   0.7211768207531088 1.0000   
         C         C         1.0       0.3225888267747608  0.7193639758417011  0.7507310772631633 1.0000   
         H         H         1.0       0.34703943903055645           0.7076733441611776 0.7141749079332838 1.0000   
         H         H         1.0       0.3178001054853938  0.7204823542159724  0.7056063862961522 1.0000   
         H         H         1.0       0.30135035209464434           0.7223896083746608 0.7550427435366649 1.0000   
         H         H         1.0       0.3284257383987065  0.7412149856931517  0.7497822192004735 1.0000   
         C         C         1.0       0.22638839030496488           0.6006528410933116 0.9762314258932684 1.0000   
         C         C         1.0       0.2241711407195227  0.630898220319032   0.9670454312953219 1.0000   
         H         H         1.0       0.2296317243207308  0.5986120700860977  0.9994957958657893 1.0000   
         H         H         1.0       0.24347936608594337           0.589941060378374  0.9648593526535292 1.0000   
         H         H         1.0       0.20964781928427756           0.6406300519692383 0.9801235570684061 1.0000   
         H         H         1.0       0.2173225176299871  0.6297616167121458  0.9429882243050006 1.0000   
         C         C         1.0       0.4664825419946081  0.6227638393873862  0.8780512207560569 1.0000   
         C         C         1.0       0.48322936367275904           0.6239352421067664 0.8501389147309184 1.0000   
         H         H         1.0       0.47908909671561994           0.6265304729762438 0.8999405888875315 1.0000   
         H         H         1.0       0.4579381185746464  0.6022391382262157  0.8812236142608463 1.0000   
         H         H         1.0       0.48774965137545023           0.6455690762364088 0.8472808341411966 1.0000   
         H         H         1.0       0.4697026471151129  0.6227975038738641  0.830443141306455  1.0000   
         C         C         1.0       0.0034891619249371483         0.5246999312519217 0.2755518127369377 1.0000   
         C         C         1.0       0.47856135614793577           0.5196874712961965 0.29687628995293086          1.0000   
         H         H         1.0       0.49190700964631257           0.9918905567031027 0.2537205981514643 1.0000   
         H         H         1.0       0.9949042553164674  0.0037298263995537706        0.27029291095337127          1.0000   
         H         H         1.0       0.47126933884053884           0.5371413311093509 0.28546267029015204          1.0000   
         H         H         1.0       0.48824496842395854           0.5258721049627058 0.31798685368469926          1.0000   
         C         C         1.0       0.405873866155924   0.6461082919444805  0.09308694510361769          1.0000   
         C         C         1.0       0.4064865514234005  0.6337838795463154  0.06038271421047834          1.0000   
         H         H         1.0       0.397821158713194   0.6670506100265629  0.09131052891031326          1.0000   
         H         H         1.0       0.3931985008782899  0.6367165608444691  0.11118453900464544          1.0000   
         H         H         1.0       0.4060924348093991  0.6124411307905774  0.061297687146156236         1.0000   
         H         H         1.0       0.4252259417547751  0.6367488054719246  0.047906527617351424         1.0000   
         C         C         1.0       0.10622873345239146           0.7408817783144799 0.1185725612679298 1.0000   
         C         C         1.0       0.09857534847412881           0.7651718226528402 0.10009790869192303          1.0000   
         H         H         1.0       0.10851735497760844           0.7455366468761    0.14281330413164292          1.0000   
         H         H         1.0       0.12635267124975272           0.7325644694128588 0.11112244059058572          1.0000   
         H         H         1.0       0.09269165676916516           0.75992487814018   0.07747507085395322          1.0000   
         H         H         1.0       0.08027347351620533           0.7739608687426642 0.10920338382931379          1.0000   
         C         C         1.0       0.13625930970189717           0.002868035401065505         0.22737692926612593          1.0000   
         C         C         1.0       0.16713478890026806           0.5369286152657154 0.21476567916730574          1.0000   
         H         H         1.0       0.11813455082308899           0.0035638841299248103        0.21289793173931523          1.0000   
         H         H         1.0       0.16012036169687915           0.5188833050128019 0.2587564363184806 1.0000   
         H         H         1.0       0.1733709425368745  0.5301320285991161  0.1916867634654394 1.0000   
         H         H         1.0       0.185056209538447   0.5438792855041916  0.22706497729088576          1.0000   
         C         C         1.0       0.024672640180150526          0.5633600771441137 0.9950095226845663 1.0000   
         C         C         1.0       0.01433826446663449           0.5914030199911307 0.9972499390473305 1.0000   
         H         H         1.0       0.500056662260443   0.5577732498276922  0.9707773938659413 1.0000   
         H         H         1.0       0.507791041251968   0.5490079605617831  0.009660003337808974         1.0000   
         H         H         1.0       0.4780114986451531  0.5891111706405324  0.002262577241065822         1.0000   
         H         H         1.0       0.017005626640945706          0.601159886314205  0.9769943006553008 1.0000   
         C         C         1.0       0.2249689488821547  0.7380087417058302  0.5318137805795402 1.0000   
         C         C         1.0       0.1975707796513974  0.7263993012438351  0.5251517460649257 1.0000   
         H         H         1.0       0.22419265493206397           0.7549801178569572 0.5476758376101385 1.0000   
         H         H         1.0       0.2333038299172329  0.746713014242351   0.512431221189033  1.0000   
         H         H         1.0       0.1882406288297477  0.7214640968073411  0.5460201435483332 1.0000   
         H         H         1.0       0.19680265258132326           0.7079946224383848 0.5127159406328203 1.0000   
         C         C         1.0       0.05167930124488621           0.7188999016778885 0.288889181307702  1.0000   
         C         C         1.0       0.07652904942900424           0.7015903590441295 0.28823485319740527          1.0000   
         H         H         1.0       0.035071505574061274          0.7094183306159334 0.2996924375244573 1.0000   
         H         H         1.0       0.04546224335451189           0.7225769531653761 0.2659532275922114 1.0000   
         H         H         1.0       0.08277752840666702           0.6977036445442243 0.3121019959465781 1.0000   
         H         H         1.0       0.09292724030972012           0.7129343122225894 0.2785426215695807 1.0000   
         C         C         1.0       0.49449416070228674           0.881038283020641  0.3144930532042724 1.0000   
         C         C         1.0       0.468834930068567   0.8648069744343576  0.3052087463765148 1.0000   
         H         H         1.0       0.005821207015387529          0.9010935836939543 0.30355046456650997          1.0000   
         H         H         1.0       0.4913383762637236  0.8897387721210157  0.33582992288912605          1.0000   
         H         H         1.0       0.46655941107286647           0.8465707581092036 0.31995209244091893          1.0000   
         H         H         1.0       0.470833120497025   0.8577865270756926  0.2809918286921341 1.0000   
         C         C         1.0       0.22054509189325378           0.8918296312450835 0.4668021293128654 1.0000   
         C         C         1.0       0.24707274176127408           0.8790253267882836 0.4607973690895903 1.0000   
         H         H         1.0       0.21726876074714327           0.9053009460511894 0.44760528279061057          1.0000   
         H         H         1.0       0.22192773543390645           0.9050305127434465 0.4865751375679085 1.0000   
         H         H         1.0       0.24523259240509232           0.8631723866470303 0.44340093945139186          1.0000   
         H         H         1.0       0.2539201215651415  0.8686989650134557  0.4811201913938291 1.0000   
         C         C         1.0       0.21739166581103947           0.8496193753439198 0.3085870141094234 1.0000   
         C         C         1.0       0.20196694770626408           0.8251279723208672 0.3170393113625976 1.0000   
         H         H         1.0       0.23941155109320675           0.8462026003263475 0.3105821056711967 1.0000   
         H         H         1.0       0.21501176833816452           0.8658893438821845 0.3238483100461739 1.0000   
         H         H         1.0       0.21096996062143952           0.8160770499165096 0.33809645081073425          1.0000   
         H         H         1.0       0.20348624709557114           0.8100628218754814 0.29844467084004855          1.0000   
         C         C         1.0       0.4986174251027186  0.9626142006713801  0.7702856978109205 1.0000   
         C         C         1.0       0.4894153672183781  0.9844486561482716  0.7921271406374011 1.0000   
         H         H         1.0       0.001405804869156017          0.9660347280746104 0.7931070028713838 1.0000   
         H         H         1.0       0.002692445048037378          0.9795668628683906 0.758482020029116  1.0000   
         H         H         1.0       0.4716365466902523  0.9960329986856958  0.7820249912600791 1.0000   
         H         H         1.0       0.47951133749250824           0.9749091230042535 0.8111419024626502 1.0000   
         C         C         1.0       0.45372660431767786           0.8983234056125311 0.48684185050428086          1.0000   
         C         C         1.0       0.4432162643334599  0.9256202359922547  0.47982987986028003          1.0000   
         H         H         1.0       0.4758166074851123  0.9005491327798135  0.4853170733180152 1.0000   
         H         H         1.0       0.449779981963672   0.8856712622309301  0.4678772328549601 1.0000   
         H         H         1.0       0.4548071463942603  0.93610102357606    0.46313427043247496          1.0000   
         H         H         1.0       0.44926615201640074           0.9394645835870485 0.49780984559615793          1.0000   
         C         C         1.0       0.32904713187951    0.49957033508184684           0.7183443978739461 1.0000   
         C         C         1.0       0.3483935278362934  0.9896482728439727  0.7061371476897123 1.0000   
         H         H         1.0       0.32292869337245883           0.49415190339240483          0.7409064159820904 1.0000   
         H         H         1.0       0.32109662402619815           0.48256715581811194          0.706999653472956  1.0000   
         H         H         1.0       0.34970283870843494           0.997135344061521  0.7278214493175537 1.0000   
         H         H         1.0       0.358458602555994   0.005054917364017086         0.6933362719734248 1.0000   
         C         C         1.0       0.3834733965707852  0.7423657515198426  0.6034267988721338 1.0000   
         C         C         1.0       0.39155484621403686           0.7173181214248998 0.5869284024228187 1.0000   
         H         H         1.0       0.3784349849271465  0.7360167736160299  0.6260020824606698 1.0000   
         H         H         1.0       0.3627592666859153  0.7474264275872562  0.5947551646739762 1.0000   
         H         H         1.0       0.4066893875564108  0.7060928429891963  0.6005583213429425 1.0000   
         H         H         1.0       0.40024944578363314           0.7230727115333349 0.5651649165354515 1.0000   
         C         C         1.0       0.04029036414878097           0.8323361413553849 0.5792849671716978 1.0000   
         C         C         1.0       0.04033170641581789           0.8323088787954648 0.5440348404803999 1.0000   
         H         H         1.0       0.05419343747590862           0.8470371957831753 0.5896701417131162 1.0000   
         H         H         1.0       0.04889706568116933           0.8125121424764254 0.5879615056147857 1.0000   
         H         H         1.0       0.03239086476487338           0.8511747533644688 0.5350057649156039 1.0000   
         H         H         1.0       0.026961231707942658          0.815930842758754  0.5384159022351089 1.0000   
         C         C         1.0       0.39329239931016413           0.8065233895562902 0.8143726756111098 1.0000   
         C         C         1.0       0.3930164306220967  0.8007033153363339  0.7812513807730525 1.0000   
         H         H         1.0       0.376993154933573   0.8186049544084234  0.8221085028769674 1.0000   
         H         H         1.0       0.4115558468249104  0.8167539764875883  0.8206423957812292 1.0000   
         H         H         1.0       0.3726165189858176  0.7933992207220288  0.7741735336406024 1.0000   
         H         H         1.0       0.4085555696605974  0.7866503278779466  0.7749205040600783 1.0000   
         C         C         1.0       0.9451009798774032  0.40117781347169756           0.5162943471947729 1.0000   
         C         C         1.0       0.9363508060433033  0.3747786454604352  0.5141205370330694 1.0000   
         C         C         1.0       0.9306142581143565  0.36170019188110825           0.539357063484245  1.0000   
         C         C         1.0       0.9322375734843212  0.3738757521593403  0.5674489372326382 1.0000   
         C         C         1.0       0.9375246907715844  0.4003374890656412  0.5684561010988266 1.0000   
         C         C         1.0       0.9453570965203736  0.413545107462511   0.5432014031667737 1.0000   
         H         H         1.0       0.9348222354838595  0.367476068141262   0.4922112450972549 1.0000   
         H         H         1.0       0.924045687680503   0.34115338690116237           0.5368236591722076 1.0000   
         H         H         1.0       0.93743267226699    0.41008714685122205           0.5893634377369541 1.0000   
         H         H         1.0       0.9526732900494029  0.4348269346851694  0.5458505439425821 1.0000   
         C         C         1.0       0.983719553809584   0.3640588606678256  0.5957032376531365 1.0000   
         C         C         1.0       0.9627881713954095  0.34650772543832836           0.5936104672182044 1.0000   
         C         C         1.0       0.9682691475210962  0.32265841459735956           0.5790401254434306 1.0000   
         C         C         1.0       0.9924983117132241  0.3159158883912017  0.568589761016973  1.0000   
         C         C         1.0       0.5110801089729764  0.3269971794933431  0.565276308006511  1.0000   
         C         C         1.0       0.506900875232106   0.3491834822640701  0.5820912272484833 1.0000   
         C         C         1.0       0.9328065500131608  0.3564580748254002  0.5973468416422103 1.0000   
         C         C         1.0       0.9108209216478957  0.33440356746499594           0.5979877068343504 1.0000   
         C         C         1.0       0.9142329461949789  0.3125832490687172  0.6159202424356258 1.0000   
         C         C         1.0       0.8959820616750612  0.2929048801614253  0.6182209414829184 1.0000   
         C         C         1.0       0.8746277369818151  0.29305570618390064           0.600198530200577  1.0000   
         C         C         1.0       0.870757000751655   0.3149075634757073  0.5827486983475549 1.0000   
         C         C         1.0       0.8873131922037895  0.33610016064615794           0.5829214196190009 1.0000   
         C         C         1.0       0.9465386927031273  0.3684975915275678  0.653917333839303  1.0000   
         C         C         1.0       0.9416750662116479  0.3777759493176645  0.6806646088728132 1.0000   
         C         C         1.0       0.9205268869679455  0.39367202669188667           0.6867756279752151 1.0000   
         C         C         1.0       0.9018012892982233  0.3947391257389217  0.6642171528910281 1.0000   
         C         C         1.0       0.9058852079439305  0.38257726898075345           0.6366873437236917 1.0000   
         C         C         1.0       0.928735451413174   0.3701605230210298  0.6302155342411883 1.0000   
         C         C         1.0       0.9159978439593043  0.40448647369169677           0.7185326190558364 1.0000   
         C         C         1.0       0.8917498938529608  0.3366596254941811  0.7728195548105304 1.0000   
         C         C         1.0       0.9175893283221782  0.34149936291985766           0.7702288176728365 1.0000   
         C         C         1.0       0.92539820722426    0.362603863760627   0.751816759171862  1.0000   
         C         C         1.0       0.9076368007918898  0.3787042297238746  0.7368288670957487 1.0000   
         C         C         1.0       0.8815267436669906  0.37173092386981127           0.7401920521644056 1.0000   
         C         C         1.0       0.8732222715451433  0.3519882680622245  0.7587376588047406 1.0000   
         C         C         1.0       0.897008947358008   0.4298169393201665  0.7195910422523617 1.0000   
         C         C         1.0       0.8986354728566682  0.4503935796872032  0.6990980975188413 1.0000   
         C         C         1.0       0.8851200181748662  0.4738120542301514  0.7010528782631951 1.0000   
         C         C         1.0       0.8661582508362735  0.4767338823362091  0.7219979366466557 1.0000   
         C         C         1.0       0.8625193416972047  0.4563593886614961  0.7424321087745042 1.0000   
         C         C         1.0       0.8791101798803598  0.4344039373335202  0.7420091068930244 1.0000   
         C         C         1.0       0.9419384135611147  0.4217508607277245  0.7633253213470476 1.0000   
         C         C         1.0       0.9646475439793643  0.4300901924864001  0.7771859922621597 1.0000   
         C         C         1.0       0.9870728178214098  0.43657134918005297           0.7610691253628392 1.0000   
         C         C         1.0       0.9867780156647608  0.4350248690187844  0.7307113277351543 1.0000   
         C         C         1.0       0.9638094571424849  0.42378356125672845           0.7176187001505927 1.0000   
         C         C         1.0       0.9424043260462515  0.41719441264901624           0.7331686220686509 1.0000   
         H         H         1.0       0.9820121960969977  0.3827298183435741  0.6078421574396291 1.0000   
         H         H         1.0       0.9518677142288016  0.30954631999875887           0.5761624608833643 1.0000   
         H         H         1.0       0.49660416328680096           0.29256456044650836          0.5444160208858957 1.0000   
         H         H         1.0       0.5211068411842273  0.36479387797799273           0.5845861331894828 1.0000   
         H         H         1.0       0.9317379579534781  0.3125221757868096  0.6291489022563    1.0000   
         H         H         1.0       0.8981115225483782  0.2785251819985365  0.6378787308366092 1.0000   
         H         H         1.0       0.8509919494975638  0.3165604601571279  0.572318393186273  1.0000   
         H         H         1.0       0.8824859565682275  0.35337072707275524           0.570397163303281  1.0000   
         H         H         1.0       0.9629694400728409  0.3554252636966343  0.6517229106112149 1.0000   
         H         H         1.0       0.9546935354990557  0.37126449710504145           0.6985756548107316 1.0000   
         H         H         1.0       0.8847545628355886  0.40842159810948553           0.6691505963518288 1.0000   
         H         H         1.0       0.8918154591689031  0.3869967562068002  0.619124645193074  1.0000   
         H         H         1.0       0.9324830588804235  0.3297085356952377  0.7820362238787248 1.0000   
         H         H         1.0       0.9464843796548652  0.3660462355224803  0.7493936364791144 1.0000   
         H         H         1.0       0.8661017543132904  0.38144571717966624           0.7268408526376435 1.0000   
         H         H         1.0       0.8509295331592107  0.3497171126368059  0.7610095011923745 1.0000   
         H         H         1.0       0.9135061615841539  0.4491504434729157  0.681930236542285  1.0000   
         H         H         1.0       0.889983203931202   0.49009596748189943           0.6881049919589232 1.0000   
         H         H         1.0       0.8489179857927882  0.4586310596175116  0.7612968009915999 1.0000   
         H         H         1.0       0.8783639398228047  0.42231568878512216           0.7611269105078831 1.0000   
         H         H         1.0       0.9255009251133374  0.4182343105841891  0.7782058457731973 1.0000   
         H         H         1.0       0.9660064170212964  0.4328636967627473  0.8018943339456778 1.0000   
         H         H         1.0       0.00354110465566726           0.4416601276027491 0.7177025760756317 1.0000   
         H         H         1.0       0.9642375354038993  0.42200392857011493           0.6929645958130832 1.0000   
         C         C         1.0       0.646868730135265   0.2835705611526372  0.2742496167457154 1.0000   
         C         C         1.0       0.630523276804079   0.3049405329786808  0.2730895365632886 1.0000   
         C         C         1.0       0.610989940559078   0.3058128125898599  0.2940423733728762 1.0000   
         C         C         1.0       0.6084443198290375  0.28689889493260284           0.31628706333165557          1.0000   
         C         C         1.0       0.6281124452328931  0.2676663182127453  0.3179165693949273 1.0000   
         C         C         1.0       0.6465348053462617  0.26541056256369205           0.2976194936761802 1.0000   
         H         H         1.0       0.630776549288194   0.31992906883178673           0.25659477756932086          1.0000   
         H         H         1.0       0.5982890682575972  0.3227365917119097  0.295161641129805  1.0000   
         H         H         1.0       0.6272968753013415  0.25284314171672    0.33529282599848215          1.0000   
         H         H         1.0       0.6597026749062223  0.2486988912815945  0.2955375781406986 1.0000   
         C         C         1.0       0.5708813840071422  0.24260545520574503           0.3097389588183939 1.0000   
         C         C         1.0       0.5679108910616436  0.25740378875409897           0.3353232142887366 1.0000   
         C         C         1.0       0.5508387151345349  0.24780544932518866           0.3564279625560647 1.0000   
         C         C         1.0       0.5384096095029064  0.22409120735339536           0.351497958353468  1.0000   
         C         C         1.0       0.5449823089276589  0.2085898412043259  0.32853441309153975          1.0000   
         C         C         1.0       0.559911524134607   0.2184697468688021  0.30784070473916986          1.0000   
         C         C         1.0       0.5819602996773471  0.28574242053254395           0.33624779819461864          1.0000   
         C         C         1.0       0.5579483865620503  0.3042770397254768  0.3280160488278296 1.0000   
         C         C         1.0       0.5438311706795049  0.31692117294874717           0.3493353284708414 1.0000   
         C         C         1.0       0.5248628959525673  0.33506354158477636           0.3418567391858956 1.0000   
         C         C         1.0       0.5168851792261222  0.33824591370456936           0.31230839844936076          1.0000   
         C         C         1.0       0.5270564323965794  0.3224409981533273  0.29040378206929984          1.0000   
         C         C         1.0       0.5475577439709047  0.3058812724573601  0.29893177322618075          1.0000   
         C         C         1.0       0.6038440870383012  0.2732487886132562  0.3873544376144963 1.0000   
         C         C         1.0       0.6169809146431388  0.27990353611192376           0.41336888465582644          1.0000   
         C         C         1.0       0.6234056639266743  0.30607178979159744           0.42019103245595774          1.0000   
         C         C         1.0       0.614924299363717   0.32561065686046786           0.40093132295096107          1.0000   
         C         C         1.0       0.6010942681626739  0.3192693464467521  0.37494240071301765          1.0000   
         C         C         1.0       0.5952858969309351  0.29306721883342096           0.3680684022288334 1.0000   
         C         C         1.0       0.639062216653119   0.314962001847826   0.45034609657022023          1.0000   
         C         C         1.0       0.567395358869743   0.3302462274271253  0.5055047469032393 1.0000   
         C         C         1.0       0.5775628356816261  0.3044288132698804  0.5007346062884375 1.0000   
         C         C         1.0       0.6017311222546653  0.30073372844413915           0.4874417899855401 1.0000   
         C         C         1.0       0.6140263733984268  0.3205366187263037  0.4735191324022396 1.0000   
         C         C         1.0       0.6033482017887101  0.34567807308998716           0.4754183268065853 1.0000   
         C         C         1.0       0.5817299308375844  0.35026061727549374           0.4934090191715681 1.0000   
         C         C         1.0       0.6598033928321924  0.33867227437733943           0.4447352741075397 1.0000   
         C         C         1.0       0.6759079998597298  0.3385105448075589  0.419488123769953  1.0000   
         C         C         1.0       0.6957634025897662  0.3565985154347814  0.4150380939947899 1.0000   
         C         C         1.0       0.7012097051761359  0.3745832032598555  0.437531785409103  1.0000   
         C         C         1.0       0.6873135181516788  0.37444281839287336           0.463393353412443  1.0000   
         C         C         1.0       0.6669460690228384  0.35753907589729006           0.4667744898843145 1.0000   
         C         C         1.0       0.6646951351790333  0.2958388626617761  0.49619103639900475          1.0000   
         C         C         1.0       0.6828026010386145  0.28007267704479183           0.509500485897718  1.0000   
         C         C         1.0       0.6992832483734047  0.26412946834580525           0.49255533588749606          1.0000   
         C         C         1.0       0.6929064689121975  0.26129850226094387           0.46274544522642047          1.0000   
         C         C         1.0       0.672561309367034   0.27426313367267197           0.4491298226431465 1.0000   
         C         C         1.0       0.6594735671122239  0.2943285384242278  0.46570724611769426          1.0000   
         H         H         1.0       0.5828157070548621  0.24941108635184633           0.2905353313831402 1.0000   
         H         H         1.0       0.5428636865168377  0.2605394731676401  0.37327677918648694          1.0000   
         H         H         1.0       0.5242619395684238  0.21680458409845474           0.3667177408055799 1.0000   
         H         H         1.0       0.5617923898160578  0.20733289553499654           0.2870841516536221 1.0000   
         H         H         1.0       0.5481690878261635  0.31376277977019384           0.37304392226960253          1.0000   
         H         H         1.0       0.5162754423022321  0.3489500388335469  0.35867543030636684          1.0000   
         H         H         1.0       0.5231035818213996  0.32666943407149446           0.26747918395434134          1.0000   
         H         H         1.0       0.5582514932453939  0.29647337480846125           0.2805734712516771 1.0000   
         H         H         1.0       0.601145436883157   0.2538740224666098  0.3833502745544562 1.0000   
         H         H         1.0       0.6216074364076742  0.2629756700326226  0.42721668175300703          1.0000   
         H         H         1.0       0.6171832834433888  0.3464053868745519  0.4042775520423423 1.0000   
         H         H         1.0       0.5947961980835539  0.3337844371828768  0.35922468855125267          1.0000   
         H         H         1.0       0.569483745831854   0.28670578234236305           0.5090623494806781 1.0000   
         H         H         1.0       0.6082752069281634  0.2799801745073437  0.4841985657204232 1.0000   
         H         H         1.0       0.6128068101638838  0.3626569237643197  0.46454350094052554          1.0000   
         H         H         1.0       0.5731002564305105  0.3689661314288222  0.49589822978338316          1.0000   
         H         H         1.0       0.6727755810469468  0.3222121502508947  0.4040500316628823 1.0000   
         H         H         1.0       0.7069844740413362  0.35346944600035707           0.3947214984273505 1.0000   
         H         H         1.0       0.693085575742942   0.3868807523151247  0.4815418384447178 1.0000   
         H         H         1.0       0.658544066871846   0.3559986943414378  0.48921895882318966          1.0000   
         H         H         1.0       0.6577079609978608  0.311575343569147   0.5109919623818381 1.0000   
         H         H         1.0       0.6853946278366254  0.27950075835151017           0.533657312471729  1.0000   
         H         H         1.0       0.703422803860069   0.2467234552637765  0.44963411518113056          1.0000   
         H         H         1.0       0.6688321239887375  0.2689601456964608  0.42574037289587335          1.0000   
         C         C         1.0       0.5168859984860091  0.12011317822835195           0.03544729536466492          1.0000   
         C         C         1.0       0.5235241629167132  0.10398542322235026           0.057663633202028525         1.0000   
         C         C         1.0       0.526722736262729   0.11384464989554999           0.08598353560436034          1.0000   
         C         C         1.0       0.5258843971138419  0.14073409208078552           0.0917085067309953 1.0000   
         C         C         1.0       0.5229114610219516  0.15738140121289942           0.06714548232384342          1.0000   
         C         C         1.0       0.5180054589349076  0.1466516881399688  0.039499233979133096         1.0000   
         H         H         1.0       0.5222241709396768  0.08353846464455567           0.053773713129404765         1.0000   
         H         H         1.0       0.528214620916191   0.09848555589700037           0.10361835285549431          1.0000   
         H         H         1.0       0.5251019744705     0.17882121147830454           0.07089589878525596          1.0000   
         H         H         1.0       0.5140238451432247  0.158337845059012   0.01974979544720032          1.0000   
         C         C         1.0       0.9833472379401255  0.13942111239750546           0.1258810443741301 1.0000   
         C         C         1.0       0.9967689770938055  0.16315074095826276           0.1213006778670345 1.0000   
         C         C         1.0       0.9834238727248802  0.18254433021323224           0.10557863974170809          1.0000   
         C         C         1.0       0.9601965761373827  0.17725874686208953           0.09108037955882682          1.0000   
         C         C         1.0       0.9490075875830893  0.15144598764211364           0.09206250627793389          1.0000   
         C         C         1.0       0.9605747317287766  0.13307858654255153           0.11204285865530676          1.0000   
         C         C         1.0       0.5213778486269269  0.1511764084395307  0.12366183928850628          1.0000   
         C         C         1.0       0.5360962269811553  0.17872979125938573           0.13365846138269477          1.0000   
         C         C         1.0       0.5266185892622756  0.1960185103281743  0.15483282377358104          1.0000   
         C         C         1.0       0.5402527938219233  0.21840326227759735           0.1620322511965427 1.0000   
         C         C         1.0       0.5628528396282717  0.22480572432732784           0.14603774548219922          1.0000   
         C         C         1.0       0.5726022013267913  0.20768238032575936           0.12532597389300487          1.0000   
         C         C         1.0       0.5603533944020754  0.18435959564799215           0.12025680419470076          1.0000   
         C         C         1.0       0.5180807989519731  0.1276226047109058  0.17523806780812506          1.0000   
         C         C         1.0       0.529815139874498   0.11391670086110771           0.19806500018440115          1.0000   
         C         C         1.0       0.5563546611522617  0.10518338921661285           0.19654714595867828          1.0000   
         C         C         1.0       0.5694962857790051  0.11185530882354028           0.17155210949664348          1.0000   
         C         C         1.0       0.5576076321983416  0.12416035821479582           0.14781760686443038          1.0000   
         C         C         1.0       0.5313127853212124  0.13261886070204668           0.14988961800730508          1.0000   
         C         C         1.0       0.5685983227119187  0.08837169488560585           0.22360750377765995          1.0000   
         C         C         1.0       0.5630996224957131  0.14275275701500634           0.29907802145363643          1.0000   
         C         C         1.0       0.5431970560492221  0.124928072453268   0.29244212555827676          1.0000   
         C         C         1.0       0.5443762966797757  0.10844971879543394           0.2684613980727672 1.0000   
         C         C         1.0       0.5671553641777483  0.10834754946502768           0.25058314965106604          1.0000   
         C         C         1.0       0.5848003288355943  0.12882284934378574           0.25479302897660877          1.0000   
         C         C         1.0       0.5838853370575249  0.14431073430328512           0.2796003717465361 1.0000   
         C         C         1.0       0.5984056538696267  0.07628120055792352           0.22096442604428776          1.0000   
         C         C         1.0       0.6014649441816524  0.05936417569494749           0.19600833108199428          1.0000   
         C         C         1.0       0.6230419835611348  0.04421462803234464           0.19245372777930145          1.0000   
         C         C         1.0       0.6419544546446502  0.043997885320070776         0.21477627590316403          1.0000   
         C         C         1.0       0.6391024564732868  0.059433663362703955         0.24021879921840042          1.0000   
         C         C         1.0       0.617086556774622   0.07488254621499049           0.24361196301306398          1.0000   
         C         C         1.0       0.5594113154591389  0.04957427324151923           0.26209126027757895          1.0000   
         C         C         1.0       0.5429936825448611  0.02991037295938781           0.2723712338848436 1.0000   
         C         C         1.0       0.5225113184377147  0.021090750720792063         0.2559349814454153 1.0000   
         C         C         1.0       0.5179154778420879  0.03059768306289025           0.22724517066421168          1.0000   
         C         C         1.0       0.5346540120408625  0.04951656967831656           0.21612197562390692          1.0000   
         C         C         1.0       0.5545197511356645  0.06100873851326956           0.2333124948015046 1.0000   
         H         H         1.0       0.9939565018760623  0.1250019138657916  0.13776098371729045          1.0000   
         H         H         1.0       0.9921643134228066  0.20096842892566325           0.1038315456921808 1.0000   
         H         H         1.0       0.9508524683163061  0.19222136489596925           0.07655388827633387          1.0000   
         H         H         1.0       0.9533914642562749  0.11288571586560904           0.11533427450241145          1.0000   
         H         H         1.0       0.509470488914625   0.1894020678602128  0.16676597838153978          1.0000   
         H         H         1.0       0.5331324134162233  0.2313642479690469  0.17892625270575782          1.0000   
         H         H         1.0       0.5903310670169161  0.21404156093611756           0.11396419621744099          1.0000   
         H         H         1.0       0.5651462468482261  0.17057117998584861           0.10216249983068926          1.0000   
         H         H         1.0       0.0007089619223827892         0.15699478063230224          0.1805830605067415 1.0000   
         H         H         1.0       0.5153925495945505  0.10903561268755863           0.21465987493517807          1.0000   
         H         H         1.0       0.5902209958345983  0.10876169796491215           0.16842005491442313          1.0000   
         H         H         1.0       0.5686660610529991  0.12785334567091736           0.12809311877113982          1.0000   
         H         H         1.0       0.5268527184732519  0.12331942085233145           0.3067341656029689 1.0000   
         H         H         1.0       0.5272467807935913  0.09603783836307146           0.2639131531556603 1.0000   
         H         H         1.0       0.6017585694863677  0.12931996202497073           0.24011630888260888          1.0000   
         H         H         1.0       0.600173945275513   0.15740787586000604           0.2860309124065442 1.0000   
         H         H         1.0       0.5878888688530721  0.0587331172240458  0.17754021920280064          1.0000   
         H         H         1.0       0.6228856206755958  0.03188981188504253           0.17360500823932065          1.0000   
         H         H         1.0       0.6544392591898076  0.06301072780498015           0.2568281317079985 1.0000   
         H         H         1.0       0.6158622338035631  0.08452368076956307           0.26534662155437294          1.0000   
         H         H         1.0       0.574983584620766   0.056125428715483025         0.277161667072111  1.0000   
         H         H         1.0       0.5473061730774178  0.024573176139513583         0.2956720850511533 1.0000   
         H         H         1.0       0.4997051714753768  0.026762763909497268         0.21411894959675043          1.0000   
         H         H         1.0       0.532462785601234   0.05554808676073408           0.19301363271969427          1.0000   
         C         C         1.0       0.8309180232020402  0.2120444064013562  0.7857062221970131 1.0000   
         C         C         1.0       0.8569602515458273  0.20649396414078058           0.7844040440369796 1.0000   
         C         C         1.0       0.8711003812504704  0.20431515498413044           0.8101953992533689 1.0000   
         C         C         1.0       0.8593409826614647  0.20742327282076875           0.8377343077313691 1.0000   
         C         C         1.0       0.8321827224923981  0.2102358180131404  0.8384096045759295 1.0000   
         C         C         1.0       0.8179471302779624  0.21287110720338392           0.8121428025558926 1.0000   
         H         H         1.0       0.8667120059015877  0.20606713952837666           0.7638524160675491 1.0000   
         H         H         1.0       0.8919435878640247  0.1986390072045995  0.8076965220564282 1.0000   
         H         H         1.0       0.8222142901040211  0.20963377621476587           0.8599693403087145 1.0000   
         H         H         1.0       0.7961841039210794  0.21766191619939768           0.8100181653795336 1.0000   
         C         C         1.0       0.8639845015479529  0.26083934703168177           0.8655432739535273 1.0000   
         C         C         1.0       0.8830301414959658  0.24174405102010618           0.8621994960757033 1.0000   
         C         C         1.0       0.9057709299570167  0.25061612147939344           0.8498113536559364 1.0000   
         C         C         1.0       0.9101608037589682  0.2760584781304454  0.841728431578101  1.0000   
         C         C         1.0       0.8899603136459348  0.2945060958373002  0.8441393873738738 1.0000   
         C         C         1.0       0.8667168158899735  0.2867381240390998  0.8577336398544068 1.0000   
         C         C         1.0       0.877680333113582   0.21110572548063822           0.8667635219039597 1.0000   
         C         C         1.0       0.9055839629502641  0.19451903866649606           0.8707849944964361 1.0000   
         C         C         1.0       0.9257371973992667  0.20082113425213918           0.8908530820775683 1.0000   
         C         C         1.0       0.948571171495109   0.18519642806139167           0.893477671790362  1.0000   
         C         C         1.0       0.9499157443506053  0.16235612804836322           0.8789961353968554 1.0000   
         C         C         1.0       0.9291857558173929  0.15372556738106607           0.861596094147317  1.0000   
         C         C         1.0       0.9073969875519319  0.1691425797530086  0.8584380998565646 1.0000   
         C         C         1.0       0.8637064084384023  0.22084113731499125           0.9201429854105959 1.0000   
         C         C         1.0       0.8502536023616232  0.21382317358838035           0.9455879676344762 1.0000   
         C         C         1.0       0.8383770308806631  0.18889729011967668           0.9485616429010494 1.0000   
         C         C         1.0       0.843288084419651   0.17095789378122364           0.92593112794453   1.0000   
         C         C         1.0       0.8534798640073505  0.17838358670202317           0.899155761436     1.0000   
         C         C         1.0       0.8637561722328537  0.20361543557793618           0.8954019195306803 1.0000   
         C         C         1.0       0.8262645184821944  0.17928591872569036           0.978680971395275  1.0000   
         C         C         1.0       0.8995192979487872  0.15337732180031732           0.025851462102272082         1.0000   
         C         C         1.0       0.8927749433034164  0.18033351739053885           0.023822666044785716         1.0000   
         C         C         1.0       0.8692795933103539  0.18745475298406042           0.011098930718119482         1.0000   
         C         C         1.0       0.8539371174934997  0.17009889129444228           0.994678575673049  1.0000   
         C         C         1.0       0.8615963995463046  0.1430595159353858  0.9956378291853786 1.0000   
         C         C         1.0       0.8838399204460977  0.13476239806966372           0.013038896851799368         1.0000   
         C         C         1.0       0.802104145614604   0.15930823872944078           0.9767514645551122 1.0000   
         C         C         1.0       0.7837062098366084  0.16126393524786778           0.9527766055300403 1.0000   
         C         C         1.0       0.7595111122433957  0.1489990760579319  0.9535964197727173 1.0000   
         C         C         1.0       0.7542400783925991  0.13320934043061688           0.9783506340160549 1.0000   
         C         C         1.0       0.7744366767233956  0.12664520498449405           0.9989360400469274 1.0000   
         C         C         1.0       0.7977082814930294  0.14062618654483514           0.9985020439117863 1.0000   
         C         C         1.0       0.8072655103741052  0.20272017320821345           0.026047338415126214         1.0000   
         C         C         1.0       0.7923773614197722  0.22126029020616614           0.04249602084860423          1.0000   
         C         C         1.0       0.7780845262007027  0.24037598546618058           0.02645025176300786          1.0000   
         C         C         1.0       0.7789510723975404  0.23932509355630696           0.995063344471187  1.0000   
         C         C         1.0       0.7933265169061543  0.22066131622991447           0.9795287844947766 1.0000   
         C         C         1.0       0.8091857814503115  0.20275047065322907           0.9947132495941473 1.0000   
         H         H         1.0       0.8449576326869968  0.2542202046643605  0.8740498667598146 1.0000   
         H         H         1.0       0.922693592409033   0.23736507220194564           0.8478104759640787 1.0000   
         H         H         1.0       0.9271917406237933  0.28246659175904804           0.8315882699581338 1.0000   
         H         H         1.0       0.8511297901844088  0.3007568786332727  0.8597061175576839 1.0000   
         H         H         1.0       0.9269653666959141  0.22104462840274702           0.9038565420497894 1.0000   
         H         H         1.0       0.9636940645780049  0.19026315969737925           0.9091032329444638 1.0000   
         H         H         1.0       0.9289146196288189  0.13390442337454148           0.8539648282390698 1.0000   
         H         H         1.0       0.893200531115164   0.16081640489533985           0.8433534485482561 1.0000   
         H         H         1.0       0.8721044734871082  0.24021826022567852           0.9195425481357685 1.0000   
         H         H         1.0       0.8517741099642344  0.22621607264634286           0.9655875692295628 1.0000   
         H         H         1.0       0.835206180790372   0.15172581354112416           0.929886477730011  1.0000   
         H         H         1.0       0.8564803393699421  0.1629594403116083  0.8822220202420004 1.0000   
         H         H         1.0       0.9050864219057215  0.1941196688209564  0.035810374867850936         1.0000   
         H         H         1.0       0.8635386624616325  0.20808664184358078           0.0120170340521314 1.0000   
         H         H         1.0       0.8489368205308847  0.12859209730284446           0.9836299479701084 1.0000   
         H         H         1.0       0.8897817381164727  0.11523584286958355           0.010764206816726324         1.0000   
         H         H         1.0       0.7880982542967616  0.1739716754339415  0.9348863062561663 1.0000   
         H         H         1.0       0.745120098182031   0.14794693962458197           0.934444320139687  1.0000   
         H         H         1.0       0.7714922200931494  0.11438658613149066           0.01776255538039122          1.0000   
         H         H         1.0       0.809539025886727   0.14111605993461335           0.02011876289342886          1.0000   
         H         H         1.0       0.8170202269699228  0.1863371984993169  0.03850602989575944          1.0000   
         H         H         1.0       0.7943719811214253  0.22036285971245784           0.06589084919831942          1.0000   
         H         H         1.0       0.7666291299943006  0.25309775297189957           0.9834905000660726 1.0000   
         H         H         1.0       0.7900441580129087  0.2191174394712087  0.9560074948431116 1.0000   
         C         C         1.0       0.548951869894915   0.09706824221575763           0.9772355014707923 1.0000   
         C         C         1.0       0.5711662103243142  0.10841769663763738           0.9680579986149158 1.0000   
         C         C         1.0       0.5929205017968311  0.0943854389763757  0.9597053780969607 1.0000   
         C         C         1.0       0.5924325856350914  0.06734481859401614           0.9593971175563616 1.0000   
         C         C         1.0       0.5687645528053196  0.055656445218853365         0.965961431815598  1.0000   
         C         C         1.0       0.5472322085841871  0.06965192637240354           0.975714386554366  1.0000   
         H         H         1.0       0.5714042477926725  0.12925523718673954           0.9670563403355679 1.0000   
         H         H         1.0       0.6105066802762458  0.1054762046130157  0.9539746493969014 1.0000   
         H         H         1.0       0.567316761795162   0.034653500674998075         0.9642810328610621 1.0000   
         H         H         1.0       0.528201595877527   0.06153346513207833           0.9822119340156736 1.0000   
         C         C         1.0       0.6196606212652777  0.023632014306664378         0.9974019766805816 1.0000   
         C         C         1.0       0.6230954302901472  0.02436881619424849           0.9672350353851175 1.0000   
         C         C         1.0       0.6334663628897673  0.002907517591940013         0.9537858201351139 1.0000   
         C         C         1.0       0.6577777267358969  0.47621476432907067           0.9673116517930809 1.0000   
         C         C         1.0       0.6535440820409352  0.47120971591189137           0.9974514683620503 1.0000   
         C         C         1.0       0.6416551918776157  0.48968047098231365           0.013835726151190473         1.0000   
         C         C         1.0       0.6175761787792482  0.05076378886295718           0.9494963747957688 1.0000   
         C         C         1.0       0.6453855345056064  0.06517372085158023           0.9559727401717568 1.0000   
         C         C         1.0       0.6657273139592408  0.05806250741038817           0.9376115759605469 1.0000   
         C         C         1.0       0.6902581175599528  0.06727210666613431           0.9431302867510138 1.0000   
         C         C         1.0       0.6950645938148841  0.08489153851262309           0.966709796835408  1.0000   
         C         C         1.0       0.6750695801571605  0.09159058079478259           0.9858836335482195 1.0000   
         C         C         1.0       0.6504689656520148  0.08160683681969737           0.9807441401044948 1.0000   
         C         C         1.0       0.5975329333254402  0.029665929215834393         0.9013132074270804 1.0000   
         C         C         1.0       0.5865203752532122  0.03354264592525618           0.8730766735844756 1.0000   
         C         C         1.0       0.5866001176181989  0.05819938861051516           0.8594243443120987 1.0000   
         C         C         1.0       0.601488556794123   0.07769658375780274           0.8723474333119771 1.0000   
         C         C         1.0       0.6146700207787854  0.07278983089968949           0.8980692293390454 1.0000   
         C         C         1.0       0.6106496003373497  0.05046300347703163           0.9148353214432227 1.0000   
         C         C         1.0       0.5701740262550914  0.06487523943369293           0.8297402961422689 1.0000   
         C         C         1.0       0.6280490877720276  0.06955609698745499           0.7586209824754471 1.0000   
         C         C         1.0       0.6172102584897072  0.0465557882538354  0.7668665710075722 1.0000   
         C         C         1.0       0.6024941332031994  0.0440513917443381  0.7910843292907116 1.0000   
         C         C         1.0       0.5925626359213585  0.06688054135892119           0.805970996293258  1.0000   
         C         C         1.0       0.6033341434913554  0.09034252240074167           0.7961373460191952 1.0000   
         C         C         1.0       0.6225736961048214  0.0922944617310849  0.7736602706970116 1.0000   
         C         C         1.0       0.5522143030154761  0.09058542165402612           0.8363478708199502 1.0000   
         C         C         1.0       0.541882479103943   0.09656145940352537           0.8635017742110892 1.0000   
         C         C         1.0       0.5215762032568676  0.1143806097744215  0.8652493556719726 1.0000   
         C         C         1.0       0.508023146060694   0.12451586059427205           0.8408750011980705 1.0000   
         C         C         1.0       0.5200337473794352  0.12041711427858391           0.8136776987717091 1.0000   
         C         C         1.0       0.5419697281763262  0.10402146957478238           0.8113269724795089 1.0000   
         C         C         1.0       0.5403714076433962  0.040832579984101613         0.7880974882947751 1.0000   
         C         C         1.0       0.5225180316442466  0.021719113611150257         0.779160235655101  1.0000   
         C         C         1.0       0.5105310359405748  0.005879298881440142         0.8011509634426319 1.0000   
         C         C         1.0       0.5144438201030579  0.012099305516426533         0.830403241149107  1.0000   
         C         C         1.0       0.5321655866488403  0.030975196816333456         0.8388183845766043 1.0000   
         C         C         1.0       0.5467168277418384  0.044876022801842504         0.8179702007795416 1.0000   
         H         H         1.0       0.6107815560483963  0.04001239372978227           0.00830184230336968          1.0000   
         H         H         1.0       0.6380574535150233  0.004196107410421438         0.9304205551019081 1.0000   
         H         H         1.0       0.6699952521750284  0.4625673211724066  0.9559982218453869 1.0000   
         H         H         1.0       0.6370889182253803  0.487164008234974   0.03729307974303098          1.0000   
         H         H         1.0       0.6619631103990278  0.04294272610480571           0.9204097679857922 1.0000   
         H         H         1.0       0.7059792911081114  0.06213250825211558           0.9274737806813035 1.0000   
         H         H         1.0       0.6778889535131724  0.10470889525277734           0.0035986585561443214        1.0000   
         H         H         1.0       0.6344188091646741  0.08766207920052854           0.9944185546718158 1.0000   
         H         H         1.0       0.5951849557447619  0.011591198614177393         0.9112186874964063 1.0000   
         H         H         1.0       0.5797144227653747  0.015884184779219407         0.8642669973166367 1.0000   
         H         H         1.0       0.6033051724251628  0.09647689781171183           0.8614101769846062 1.0000   
         H         H         1.0       0.6264933054630033  0.08928103591033983           0.904421650243243  1.0000   
         H         H         1.0       0.6197383770153749  0.029169392505640646         0.7539586591791951 1.0000   
         H         H         1.0       0.5941110860013713  0.02577229990338367           0.795853338739769  1.0000   
         H         H         1.0       0.5981723243044108  0.10834305198919997           0.8092435435811989 1.0000   
         H         H         1.0       0.6277262571227138  0.11178415800016894           0.7652418511850048 1.0000   
         H         H         1.0       0.5456076271750111  0.08669705064321591           0.8843141125185372 1.0000   
         H         H         1.0       0.5118816494191425  0.11439207305971368           0.8866989712797332 1.0000   
         H         H         1.0       0.514545953121028   0.12848042566940868           0.7929852102778558 1.0000   
         H         H         1.0       0.5520772878065134  0.10145623339143613           0.788962836415757  1.0000   
         H         H         1.0       0.5492766285714141  0.054534605234715434         0.7726292863683216 1.0000   
         H         H         1.0       0.5166661702056997  0.01917263153961683           0.7552345009756367 1.0000   
         H         H         1.0       0.5019982967886856  0.0019377001971428718        0.8451735483399466 1.0000   
         H         H         1.0       0.5358886849808135  0.033089143658003514         0.8620993315931837 1.0000   
         C         C         1.0       0.7853733334396251  0.18178028994419312           0.7394189674081961 1.0000   
         C         C         1.0       0.804194972916816   0.16212719772015835           0.7373970662891136 1.0000   
         C         C         1.0       0.7978047228365965  0.13851218922638467           0.7251994735916554 1.0000   
         C         C         1.0       0.7727194290624589  0.13319364924443292           0.7136052360934098 1.0000   
         C         C         1.0       0.7545693489499031  0.15447569753204954           0.7158165394077677 1.0000   
         C         C         1.0       0.7591070955496271  0.17727352953468278           0.7296252217051874 1.0000   
         H         H         1.0       0.8237828686677935  0.1680691510796037  0.7441217282447905 1.0000   
         H         H         1.0       0.8149279424091411  0.1266634205065153  0.7217442569107825 1.0000   
         H         H         1.0       0.7351762256771723  0.15428061090759607           0.7043065060946486 1.0000   
         H         H         1.0       0.7449621507986096  0.1926682582314416  0.7296381131434653 1.0000   
         C         C         1.0       0.72802037026492    0.0963090947940256  0.7318813616618755 1.0000   
         C         C         1.0       0.7362006605893786  0.09508122121996085           0.7030651966581273 1.0000   
         C         C         1.0       0.7228218603427764  0.07900704259205948           0.6827288422503464 1.0000   
         C         C         1.0       0.7014727726457382  0.06498694307817708           0.692018264185889  1.0000   
         C         C         1.0       0.6931342454236838  0.06711376489490188           0.7214570925218958 1.0000   
         C         C         1.0       0.7083772371372263  0.08145326629579738           0.7416021853361149 1.0000   
         C         C         1.0       0.765525108459986   0.1061843573081995  0.6956360123523434 1.0000   
         C         C         1.0       0.7835361734053692  0.08178976261075599           0.705243861735746  1.0000   
         C         C         1.0       0.7913229348074138  0.0632588388707863  0.683841135840221  1.0000   
         C         C         1.0       0.8053134860935973  0.040871021988915145         0.6903530422837113 1.0000   
         C         C         1.0       0.8133352253789131  0.0367794027140751  0.7193711781326149 1.0000   
         C         C         1.0       0.8051432243770354  0.05281695873737518           0.7420299223005841 1.0000   
         C         C         1.0       0.7909209984424096  0.07529701853235082           0.7344520491361214 1.0000   
         C         C         1.0       0.7514542148652723  0.12359718831400839           0.641151009999344  1.0000   
         C         C         1.0       0.7571111254671067  0.1304971914137606  0.613018780767783  1.0000   
         C         C         1.0       0.7827706992050159  0.1402142221674389  0.6067871597381207 1.0000   
         C         C         1.0       0.8031838970826635  0.13828068489754236           0.6287753381941537 1.0000   
         C         C         1.0       0.7969678219547068  0.12686017921599355           0.6547702473818345 1.0000   
         C         C         1.0       0.7709466048227452  0.11878687071226378           0.6632915288241091 1.0000   
         C         C         1.0       0.7888848763409021  0.1545598662373692  0.5751655668409276 1.0000   
         C         C         1.0       0.8027682692643507  0.0849526615986663  0.5192806179464794 1.0000   
         C         C         1.0       0.7773852545943413  0.09305046385600609           0.5245056199753799 1.0000   
         C         C         1.0       0.7734203656289618  0.11412297021375309           0.5436624271556395 1.0000   
         C         C         1.0       0.7946480182392146  0.12830106218745901           0.5564559410327288 1.0000   
         C         C         1.0       0.8197660336642894  0.12142544805686967           0.548365341301474  1.0000   
         C         C         1.0       0.8242196271449184  0.09964685467547184           0.5312715710290149 1.0000   
         C         C         1.0       0.8073461045652498  0.1796273608335098  0.5781849812290335 1.0000   
         C         C         1.0       0.8062935237715072  0.19698331381051595           0.6022347810082849 1.0000   
         C         C         1.0       0.8259476701153359  0.21656223258530286           0.6044947743250877 1.0000   
         C         C         1.0       0.8410278520316493  0.22229320411834708           0.5806753443479941 1.0000   
         C         C         1.0       0.8394079601002978  0.2083353542440274  0.5543710564160391 1.0000   
         C         C         1.0       0.8240099538638073  0.18558818147303968           0.5549695848715431 1.0000   
         C         C         1.0       0.762418993140572   0.1733602820352811  0.5275910519926705 1.0000   
         C         C         1.0       0.7436341390496872  0.1902595846113413  0.5156823202157844 1.0000   
         C         C         1.0       0.7255362151595965  0.20228713376449492           0.5332205694515096 1.0000   
         C         C         1.0       0.7262075971984995  0.19904187038320825           0.5645841432568957 1.0000   
         C         C         1.0       0.7458318679631305  0.1839724634688934  0.5768533181533253 1.0000   
         C         C         1.0       0.764690118729931   0.17047860436707335           0.559035419967655  1.0000   
         H         H         1.0       0.7407033105911603  0.10259321725790445           0.7489869796816068 1.0000   
         H         H         1.0       0.7292947604269986  0.07490238049366317           0.6610069312787454 1.0000   
         H         H         1.0       0.6893825180046115  0.054415049777793836         0.6758582626416159 1.0000   
         H         H         1.0       0.7037077550759505  0.08242652060033763           0.7657344042080482 1.0000   
         H         H         1.0       0.7856840167978719  0.06598145616605498           0.6617389698642366 1.0000   
         H         H         1.0       0.810617262804903   0.028226467776858197         0.6725313935237976 1.0000   
         H         H         1.0       0.8106522311240768  0.049186788850398996         0.7643605350509262 1.0000   
         H         H         1.0       0.7868963390324124  0.08948803896663234           0.7531345283797451 1.0000   
         H         H         1.0       0.7305597564518028  0.11816083184937032           0.6456743212165251 1.0000   
         H         H         1.0       0.740514873086268   0.13276276151119995           0.5966945976316591 1.0000   
         H         H         1.0       0.8218792830716644  0.14653980334736902           0.6223614446473883 1.0000   
         H         H         1.0       0.8132991557697958  0.12033958964850422           0.6668821023754615 1.0000   
         H         H         1.0       0.7604672867468114  0.08397834011372313           0.5126884440723797 1.0000   
         H         H         1.0       0.7544519763692339  0.12017008362488625           0.5478573008596562 1.0000   
         H         H         1.0       0.8356102479629475  0.13147303149152312           0.5589184674984518 1.0000   
         H         H         1.0       0.8435549377830877  0.09476158534564846           0.5243811143720188 1.0000   
         H         H         1.0       0.7917690790429063  0.19744698419054676           0.6195988010028041 1.0000   
         H         H         1.0       0.827255416675763   0.22692513236014353           0.6244849097996097 1.0000   
         H         H         1.0       0.8528260854943946  0.21304760070862497           0.5355497382719158 1.0000   
         H         H         1.0       0.8221354757390709  0.17366398040980485           0.5356089682256125 1.0000   
         H         H         1.0       0.7773701245193418  0.16257202573736845           0.5151858691902029 1.0000   
         H         H         1.0       0.742591246188926   0.19364949252880315           0.49154549846448076          1.0000   
         H         H         1.0       0.7136738853337609  0.21036591181538059           0.5786112280428037 1.0000   
         H         H         1.0       0.7489455617917877  0.1851605567733615  0.6002723870686623 1.0000   
         C         C         1.0       0.9153037180695921  0.4402067234644758  0.46747393152118705          1.0000   
         C         C         1.0       0.9018656214532544  0.42013886592627203           0.45492521992458174          1.0000   
         C         C         1.0       0.8760215534790161  0.42459805733870065           0.44488764456244195          1.0000   
         C         C         1.0       0.8643663078603462  0.4501308577089456  0.44538530318300656          1.0000   
         C         C         1.0       0.8798811557953276  0.4700826993350624  0.4580641332778738 1.0000   
         C         C         1.0       0.9040815336657013  0.4647925348034839  0.470127076807278  1.0000   
         H         H         1.0       0.9088532493236774  0.4008205410834288  0.45006011772746335          1.0000   
         H         H         1.0       0.8645189381528608  0.40889387260691895           0.4367799339067733 1.0000   
         H         H         1.0       0.8733872531685769  0.4901663506932076  0.4572191544778928 1.0000   
         H         H         1.0       0.9164576584059345  0.480912671613721   0.47680768951708213          1.0000   
         C         C         1.0       0.821700244337881   0.4823064314644913  0.4739974899682342 1.0000   
         C         C         1.0       0.8240841503671086  0.4804010378086977  0.44343745038657784          1.0000   
         C         C         1.0       0.8097905227327118  0.499166503734473   0.4264547663654601 1.0000   
         C         C         1.0       0.8031944317564637  0.014399609921069026         0.4483397888455184 1.0000   
         C         C         1.0       0.8070032283612021  0.01588929470493524           0.4788603497450858 1.0000   
         C         C         1.0       0.8195049147911133  0.995812452066213   0.49280411869564655          1.0000   
         C         C         1.0       0.8383865832262378  0.45692605697358946           0.42718413631869256          1.0000   
         C         C         1.0       0.8162870973212004  0.4341612744588777  0.42776706247091767          1.0000   
         C         C         1.0       0.7984602972126112  0.43233231922391985           0.4043630996684608 1.0000   
         C         C         1.0       0.7780356050639224  0.41363744566740873           0.40394985496495184          1.0000   
         C         C         1.0       0.7746335601667307  0.39872158348387865           0.42811239531692286          1.0000   
         C         C         1.0       0.7920997263851969  0.4006731288387105  0.4513981076274694 1.0000   
         C         C         1.0       0.8112025536809078  0.4187200750754253  0.4517130547559584 1.0000   
         C         C         1.0       0.8617359022480058  0.4834765026487853  0.3854094869115833 1.0000   
         C         C         1.0       0.8729125941092012  0.484839933482214   0.35862098144774524          1.0000   
         C         C         1.0       0.8786404246396482  0.46271003224932794           0.34257720079171466          1.0000   
         C         C         1.0       0.8694621133257898  0.43971089176607825           0.3523728897361419 1.0000   
         C         C         1.0       0.8549074302553984  0.4378613227202198  0.3777451305941528 1.0000   
         C         C         1.0       0.8511004340965824  0.4601254426656187  0.3954192491447105 1.0000   
         C         C         1.0       0.8968137707441858  0.4606376220132801  0.3140789227144285 1.0000   
         C         C         1.0       0.8313339097909732  0.4655753876765466  0.24896112267288853          1.0000   
         C         C         1.0       0.8432743300969753  0.4870526781347468  0.26141492747474615          1.0000   
         C         C         1.0       0.8632266100257266  0.4852145217720491  0.2814908318148293 1.0000   
         C         C         1.0       0.8733031765334466  0.46064670338883457           0.28939643735513454          1.0000   
         C         C         1.0       0.8607345773344969  0.4387077544039907  0.2794088799990519 1.0000   
         C         C         1.0       0.8400631857829532  0.440505428175955   0.258911865626414  1.0000   
         C         C         1.0       0.9163530470843565  0.4355974113222161  0.31252811321562574          1.0000   
         C         C         1.0       0.9292227110386532  0.4264150165497661  0.3387017106253807 1.0000   
         C         C         1.0       0.9509331116053499  0.40883181478559755           0.3374693351336313 1.0000   
         C         C         1.0       0.9586629352363006  0.39868756012188855           0.3099323891080371 1.0000   
         C         C         1.0       0.9448550023152591  0.40615498985471116           0.2840015207674799 1.0000   
         C         C         1.0       0.9254362853487335  0.4259752670295994  0.28569486176769077          1.0000   
         C         C         1.0       0.9240717266499671  0.49271176029252145           0.28056082559172846          1.0000   
         C         C         1.0       0.9441352085402359  0.5106180381422453  0.27731289952122223          1.0000   
         C         C         1.0       0.9588223951267203  0.5206395501516017  0.30031523234529006          1.0000   
         C         C         1.0       0.9551750429440998  0.5105113956591391  0.3287394004741917 1.0000   
         C         C         1.0       0.9348663014242247  0.4922157349901375  0.33300508492421066          1.0000   
         C         C         1.0       0.9187802898840827  0.48333540577460965           0.30982701957957326          1.0000   
         H         H         1.0       0.8285164206175337  0.4677422094445946  0.48981576668854104          1.0000   
         H         H         1.0       0.8077109904496509  0.4968047212544725  0.40261370172527194          1.0000   
         H         H         1.0       0.7923972302791988  0.030046225153931447         0.4356702825389903 1.0000   
         H         H         1.0       0.8204310806884422  0.9966530563321337  0.5163788035798279 1.0000   
         H         H         1.0       0.8023392373342259  0.44461860590332564           0.3845023516068602 1.0000   
         H         H         1.0       0.7651074189465916  0.41281115315551425           0.3850833721097893 1.0000   
         H         H         1.0       0.7872538869091263  0.3877129478433289  0.4699439069492148 1.0000   
         H         H         1.0       0.820574247340238   0.42332008986867653           0.4725533817937313 1.0000   
         H         H         1.0       0.8608124188310586  0.5014642485717754  0.39802965743624946          1.0000   
         H         H         1.0       0.8811688394922372  0.5042503386455599  0.35346385303239575          1.0000   
         H         H         1.0       0.8736248530602941  0.42115761885905734           0.34000094013075605          1.0000   
         H         H         1.0       0.8480519830057464  0.4187210226473233  0.3832386207877153 1.0000   
         H         H         1.0       0.8377045756706224  0.5065476356405343  0.2550467139817079 1.0000   
         H         H         1.0       0.8708709733332342  0.5030989658625555  0.29061265218957977          1.0000   
         H         H         1.0       0.8672168621160561  0.41833447585400496           0.2866297055810459 1.0000   
         H         H         1.0       0.8305810302279054  0.42259112596421605           0.2525492533260943 1.0000   
         H         H         1.0       0.9225465286908221  0.4329873681020093  0.36111322306885146          1.0000   
         H         H         1.0       0.9600822831026774  0.40521582580598925           0.3579314115625219 1.0000   
         H         H         1.0       0.9504543602670191  0.3997564966416839  0.26245505421872545          1.0000   
         H         H         1.0       0.9172158668498663  0.4354627695532971  0.26569075900993827          1.0000   
         H         H         1.0       0.9138768676817696  0.4865633849470601  0.2604416455392739 1.0000   
         H         H         1.0       0.9504353652911575  0.5178597648817989  0.2557881377618596 1.0000   
         H         H         1.0       0.9687832358003888  0.5152451118743995  0.3472234615366147 1.0000   
         H         H         1.0       0.9320900265357601  0.4840347579416984  0.35449823502029637          1.0000   
         C         C         1.0       0.6981375709818199  0.32427433631819963           0.24258479237786937          1.0000   
         C         C         1.0       0.6829447192497466  0.3453439425311823  0.2525132847723485 1.0000   
         C         C         1.0       0.6839094444706705  0.36939122312761685           0.23807730345549222          1.0000   
         C         C         1.0       0.7029981802934393  0.37283706718665777           0.21602050687752442          1.0000   
         C         C         1.0       0.7203201286168462  0.35198583412850054           0.20847042700168644          1.0000   
         C         C         1.0       0.716511901987955   0.3277495730319466  0.22047196307084152          1.0000   
         H         H         1.0       0.6695220327648805  0.3432504772989289  0.26933123244944523          1.0000   
         H         H         1.0       0.6687014459074387  0.3844315229863901  0.24138833126458786          1.0000   
         H         H         1.0       0.7350366365450205  0.3553722466095629  0.1923415423890577 1.0000   
         H         H         1.0       0.7273114918513885  0.3111941454864339  0.21211774472677405          1.0000   
         C         C         1.0       0.7478597390689437  0.4088942493855251  0.22000460279624523          1.0000   
         C         C         1.0       0.731108305694656   0.4129866638197674  0.19575438732427777          1.0000   
         C         C         1.0       0.7390011921196897  0.43021955884073193           0.17396459046396937          1.0000   
         C         C         1.0       0.762156796956694   0.44391582538097    0.1755873559256848 1.0000   
         C         C         1.0       0.778470282206319   0.4394146726939432  0.20024713809175682          1.0000   
         C         C         1.0       0.7722213074904393  0.4191292247546225  0.2202308562821419 1.0000   
         C         C         1.0       0.7033977751827621  0.39926673454409484           0.19702986456006133          1.0000   
         C         C         1.0       0.6863226824328276  0.42422992488699546           0.20590131530867242          1.0000   
         C         C         1.0       0.6736142473276039  0.44026231477122485           0.18511831676918591          1.0000   
         C         C         1.0       0.6591757628065454  0.4613026783292209  0.19410433088340273          1.0000   
         C         C         1.0       0.6585451413150123  0.4690126616579497  0.22303395607187457          1.0000   
         C         C         1.0       0.6702871644763151  0.45205369095655595           0.24378817554089366          1.0000   
         C         C         1.0       0.6851808358913498  0.4317162491790025  0.23470142739690883          1.0000   
         C         C         1.0       0.7105345622894012  0.37826484567512897           0.1435254490063922 1.0000   
         C         C         1.0       0.7014385663690655  0.3624785086094801  0.12166201852504628          1.0000   
         C         C         1.0       0.6749139965025185  0.35353148208515883           0.1205045660545722 1.0000   
         C         C         1.0       0.6582505558701498  0.3649035562212285  0.14141755160232436          1.0000   
         C         C         1.0       0.6672190716936595  0.37973499618316464           0.1642924236200966 1.0000   
         C         C         1.0       0.6933870491807317  0.38655146445876376           0.1665147264222639 1.0000   
         C         C         1.0       0.6646107994844178  0.3355732991531989  0.09396454676896372          1.0000   
         C         C         1.0       0.6556545204216137  0.39940570055216046           0.02881893099187525          1.0000   
         C         C         1.0       0.6787324319796434  0.38548500944499714           0.03217464244349146          1.0000   
         C         C         1.0       0.6809063876501656  0.3645261690690709  0.05142122728777888          1.0000   
         C         C         1.0       0.6604865798869616  0.3580935875769482  0.06866460109507662          1.0000   
         C         C         1.0       0.6364625674177377  0.3722927795853501  0.06623489718427214          1.0000   
         C         C         1.0       0.6344802241330254  0.3917110499331524  0.04447801085252865          1.0000   
         C         C         1.0       0.6396780735682958  0.3192428114240529  0.10158744731384853          1.0000   
         C         C         1.0       0.6406278482511806  0.3056007866841371  0.12725941648215755          1.0000   
         C         C         1.0       0.6212877512966911  0.28987791442102545           0.1359922750765756 1.0000   
         C         C         1.0       0.5988083218795797  0.2865774562726328  0.12011931000771443          1.0000   
         C         C         1.0       0.5970487913572039  0.2988661194834475  0.09259833522678323          1.0000   
         C         C         1.0       0.6176879417854805  0.3139442098169905  0.08265490530357313          1.0000   
         C         C         1.0       0.6829085610746048  0.30138381970107936           0.055550484857961185         1.0000   
         C         C         1.0       0.6993784689351296  0.2826079088275426  0.04651008762513849          1.0000   
         C         C         1.0       0.7175582933530532  0.2715582686438749  0.0660169922531126 1.0000   
         C         C         1.0       0.7212612688118941  0.28280827116398144           0.09363215350277924          1.0000   
         C         C         1.0       0.7035266487613948  0.30210526719126213           0.10279872656004788          1.0000   
         C         C         1.0       0.6845377593702046  0.3126527842101439  0.0834233673650104 1.0000   
         H         H         1.0       0.7426495170298146  0.396023222266854   0.2374997492607758 1.0000   
         H         H         1.0       0.7246093487253965  0.4352381574553613  0.15549881003508806          1.0000   
         H         H         1.0       0.7653532639036605  0.4608301398184881  0.1591247148925074 1.0000   
         H         H         1.0       0.7853168751578964  0.41461205146841773           0.23955797726465866          1.0000   
         H         H         1.0       0.6761119454042139  0.4383157889835023  0.1615065249396527 1.0000   
         H         H         1.0       0.6496378103775019  0.47182717241914524           0.17662173806074064          1.0000   
         H         H         1.0       0.669567340114874   0.45689788098466066           0.2683560717041908 1.0000   
         H         H         1.0       0.6965963552128014  0.4218523374615405  0.2522088207156484 1.0000   
         H         H         1.0       0.7312107414985636  0.3839623883577253  0.14387127480553225          1.0000   
         H         H         1.0       0.7186075355099297  0.35550489596465534           0.10792502364942573          1.0000   
         H         H         1.0       0.6363864866061779  0.3608988859924529  0.1423657025795522 1.0000   
         H         H         1.0       0.6548525987327598  0.3830043668523341  0.18313993614014365          1.0000   
         H         H         1.0       0.6959653353228169  0.3924987409729753  0.021346660154894292         1.0000   
         H         H         1.0       0.7005688638114003  0.35680587212626796           0.054651276035743226         1.0000   
         H         H         1.0       0.6202232943752407  0.36602586362489425           0.07942207478924632          1.0000   
         H         H         1.0       0.6163062976067927  0.40197775366962213           0.039580812021046054         1.0000   
         H         H         1.0       0.6569507827283998  0.3056584766141216  0.14339298650853374          1.0000   
         H         H         1.0       0.6227789668583718  0.2792262419538116  0.1570955532483084 1.0000   
         H         H         1.0       0.5780975024081408  0.2947646780229597  0.07881586011612676          1.0000   
         H         H         1.0       0.617665394679752   0.32216332058125274           0.06046349984943027          1.0000   
         H         H         1.0       0.6705490582926937  0.31139334102997224           0.039386717911024535         1.0000   
         H         H         1.0       0.6971937283305056  0.2742476810378959  0.024703161067839895         1.0000   
         H         H         1.0       0.7345473577437953  0.27481531352536953           0.10931175286183141          1.0000   
         H         H         1.0       0.7044548136367285  0.3074364173847143  0.1268397629004365 1.0000   
         C         C         1.0       0.8054616099414608  0.4534653818070708  0.20209463196606206          1.0000   
         C         C         1.0       0.8068250994046577  0.4702513629197902  0.23050028989402674          1.0000   
         H         H         1.0       0.8213517253169977  0.43885097939044976           0.19943538324393556          1.0000   
         H         H         1.0       0.8089278566142702  0.4673151200798068  0.18305675962200504          1.0000   
         H         H         1.0       0.7892587435857896  0.46579808222313934           0.24391954571969124          1.0000   
         H         H         1.0       0.8041766579789741  0.49224080793162645           0.22527217822071688          1.0000   
         C         C         1.0       0.8076163101367602  0.06486499219126708           0.4949483610423946 1.0000   
         C         C         1.0       0.7933391614467012  0.038203412647032815         0.49697651293549816          1.0000   
         H         H         1.0       0.8025047228445888  0.07501467049290833           0.4741733210653897 1.0000   
         H         H         1.0       0.8291143116658506  0.06079978523392812           0.4951357679947125 1.0000   
         H         H         1.0       0.7724356006416271  0.03966916445835633           0.48914969185834445          1.0000   
         H         H         1.0       0.7924917413180426  0.03224923531206355           0.5209496070272058 1.0000   
         C         C         1.0       0.6668798811875131  0.4473813698095858  0.010955277425710069         1.0000   
         C         C         1.0       0.6522161805177416  0.4211287384872373  0.005809105303780048         1.0000   
         H         H         1.0       0.6867777196977158  0.44377822195623856           0.0019844297550475343        1.0000   
         H         H         1.0       0.6663572221043607  0.450548844594727   0.035051123124896263         1.0000   
         H         H         1.0       0.6582374877726579  0.41367901126319484           0.9848725369043478 1.0000   
         H         H         1.0       0.6302388330647267  0.4262282045562683  0.0022703928018658758        1.0000   
         C         C         1.0       0.6693623296375628  0.05209479948144796           0.7322490671125037 1.0000   
         C         C         1.0       0.6431710853669258  0.06864236543234521           0.7287196406736512 1.0000   
         H         H         1.0       0.6672417796757285  0.034019044321490964         0.7187889612128828 1.0000   
         H         H         1.0       0.6708231266393228  0.04309574066278744           0.7547263342292411 1.0000   
         H         H         1.0       0.6306441130481971  0.05996909748540503           0.7123646979188472 1.0000   
         H         H         1.0       0.6480927957903153  0.08942957126769549           0.7240323312309258 1.0000   
         C         C         1.0       0.7602974743576412  0.26149715037563376           0.04232669818611495          1.0000   
         C         C         1.0       0.7345799778393094  0.24918987845679264           0.05471677751153695          1.0000   
         H         H         1.0       0.7556088362842369  0.2791565459034182  0.02841921133648215          1.0000   
         H         H         1.0       0.7716264983193025  0.26762439487230716           0.06302359888005982          1.0000   
         H         H         1.0       0.7239832105715223  0.23700169115846342           0.038518936928022406         1.0000   
         H         H         1.0       0.7399057383253843  0.23635784430348575           0.07343721170885542          1.0000   
         C         C         1.0       0.7903739961933994  0.21166044716783416           0.7494007361552556 1.0000   
         C         C         1.0       0.8179481117387064  0.22151623349205285           0.7566063603661417 1.0000   
         H         H         1.0       0.7818707527658999  0.22433341072636911           0.731141220661566  1.0000   
         H         H         1.0       0.7766450192415548  0.2166174598508537  0.7690460074818217 1.0000   
         H         H         1.0       0.8146265087645397  0.24384597551992696           0.7562327135929392 1.0000   
         H         H         1.0       0.8301061409280174  0.21700293186569414           0.7375136105688649 1.0000   
         C         C         1.0       0.722130268690253   0.09618989056324447           0.9677546573928087 1.0000   
         C         C         1.0       0.7269391926494092  0.12239421174685297           0.984195947954807  1.0000   
         H         H         1.0       0.7350917665278066  0.08150559723804053           0.9749519187779715 1.0000   
         H         H         1.0       0.7289949598001293  0.09944395066658701           0.9440546272068452 1.0000   
         H         H         1.0       0.7219930706764068  0.12258721195221722           0.008634663389595953         1.0000   
         H         H         1.0       0.7129279504039858  0.13654083540552842           0.9748174248942548 1.0000   
         C         C         1.0       0.973351879876377   0.14394038321100144           0.8796046123274159 1.0000   
         C         C         1.0       0.9969875914053424  0.1558384218538574  0.8619238762691506 1.0000   
         H         H         1.0       0.9797742788988787  0.1387978795972097  0.9035528716051177 1.0000   
         H         H         1.0       0.9677717151541412  0.12433040366020279           0.8679407566612438 1.0000   
         H         H         1.0       0.007192685852628111          0.17145647623840302          0.8761346635455916 1.0000   
         H         H         1.0       0.9887799970563043  0.16587454265035764           0.8417920105743801 1.0000   
         C         C         1.0       0.5046681399348277  0.9997857256815968  0.2711115106666436 1.0000   
         C         C         1.0       0.9652343498461842  0.03432214561894579           0.2779246064234258 1.0000   
         H         H         1.0       0.9958317047788101  0.5106285717670336  0.259046643697899  1.0000   
         H         H         1.0       0.5145132561108535  0.4932104213837609  0.28841943962388594          1.0000   
         H         H         1.0       0.9561282852291321  0.052103925875865015         0.2674750618561318 1.0000   
         H         H         1.0       0.976900503238681   0.04292921399738466           0.29535470569502165          1.0000   
         C         C         1.0       0.9246728377094967  0.14412325544312862           0.07313742634485731          1.0000   
         C         C         1.0       0.9266587246757613  0.14746422558948838           0.03960470556584231          1.0000   
         H         H         1.0       0.907630070050267   0.15480893809036828           0.08228628186908997          1.0000   
         H         H         1.0       0.919631275940728   0.12365199584052296           0.07808715294720045          1.0000   
         H         H         1.0       0.9333953146385661  0.12809275284012694           0.03141681886445725          1.0000   
         H         H         1.0       0.9412344920460783  0.16175652655621195           0.031038506538049078         1.0000   
         C         C         1.0       0.5794702084926042  0.24933705917903512           0.15275523185283954          1.0000   
         C         C         1.0       0.5744024774897802  0.27094991865513385           0.13049834821647338          1.0000   
         H         H         1.0       0.5748420222907029  0.2567160404563781  0.1758826388783326 1.0000   
         H         H         1.0       0.6013401827428683  0.24379052940346835           0.1565605956335272 1.0000   
         H         H         1.0       0.5639601317372795  0.26195153660075016           0.11059698150187204          1.0000   
         H         H         1.0       0.5618860191475015  0.28499632292166943           0.14132056140319704          1.0000   
         C         C         1.0       0.6437128555557742  0.4946669672425882  0.23035248015124285          1.0000   
         C         C         1.0       0.6646428083651127  0.02546072676771135           0.20896752563779747          1.0000   
         H         H         1.0       0.6226108596189699  0.49185301711419094           0.2271042303583175 1.0000   
         H         H         1.0       0.6657674310791429  0.0023314512211440167        0.2530125162407803 1.0000   
         H         H         1.0       0.6644391811583578  0.021554076525101724         0.18489420965703793          1.0000   
         H         H         1.0       0.684154260778499   0.03472549354375458           0.21099583122612792          1.0000   
         C         C         1.0       0.523161700710718   0.11234959271479074           0.978716388972388  1.0000   
         C         C         1.0       0.5058298515911348  0.10832150154791222           0.006984685869040996         1.0000   
         H         H         1.0       0.0556390913904774  0.13487534956303088           0.9903885204726481 1.0000   
         H         H         1.0       0.03269602115900949           0.1071405111672315 0.9984739647384477 1.0000   
         H         H         1.0       0.09099073978685435           0.11717680655734135          0.023206372464690483         1.0000   
         H         H         1.0       0.4875514578019182  0.12061527315761637           0.0028699913886898187        1.0000   
         C         C         1.0       0.7055586591183493  0.22361782402935684           0.5203913729022944 1.0000   
         C         C         1.0       0.719802556666323   0.24647730685270017           0.5072944976016974 1.0000   
         H         H         1.0       0.6927408049244886  0.21418569750537306           0.5035546484741382 1.0000   
         H         H         1.0       0.6935632797979239  0.23174352120509797           0.5388445388083045 1.0000   
         H         H         1.0       0.7345370464048786  0.23858753068027055           0.49138972997810204          1.0000   
         H         H         1.0       0.732231654613701   0.2582753798333934  0.5237665449838057 1.0000   
         C         C         1.0       0.5363555115065544  0.17897325793406818           0.3266744087636099 1.0000   
         C         C         1.0       0.5610042882559758  0.160904927868633   0.3279546531140644 1.0000   
         H         H         1.0       0.5234635571211074  0.1730572704923233  0.3446734800299265 1.0000   
         H         H         1.0       0.5254334392105403  0.17547825121369903           0.3053438114963095 1.0000   
         H         H         1.0       0.5601300092722836  0.14894498033337275           0.3494401448892951 1.0000   
         H         H         1.0       0.579429283265162   0.1714613155580697  0.330655273485033  1.0000   
         C         C         1.0       0.9771737270539063  0.35361857373094346           0.3210672536583313 1.0000   
         C         C         1.0       0.9832052073473654  0.3812075308230047  0.310205815266648  1.0000   
         H         H         1.0       0.4946167617299282  0.3679257938825588  0.2806505174632626 1.0000   
         H         H         1.0       0.9667727618879195  0.3441438069408654  0.29995482827370956          1.0000   
         H         H         1.0       0.994263582532047   0.3810726745436835  0.2905893071938909 1.0000   
         H         H         1.0       0.9981222331711149  0.3894713827241581  0.3273746257382116 1.0000   
         C         C         1.0       0.7252256413199677  0.3935209057740495  0.43304953292303244          1.0000   
         C         C         1.0       0.7527307410720729  0.37926845711330853           0.4305974508209451 1.0000   
         H         H         1.0       0.721090352316267   0.4055909139987898  0.41270460124831837          1.0000   
         H         H         1.0       0.726931751055302   0.41025185932031744           0.45089144907688733          1.0000   
         H         H         1.0       0.7533243208511252  0.36819593369194775           0.4089382048672018 1.0000   
         H         H         1.0       0.7570989484702063  0.3634993857391737  0.44689533561657996          1.0000   
         C         C         1.0       0.6940363664854896  0.2959765937143875  0.2573355465711581 1.0000   
         C         C         1.0       0.667619059262707   0.2820484122592719  0.25066043995291426          1.0000   
         H         H         1.0       0.7095160000804905  0.2814104199903711  0.2497725233785818 1.0000   
         H         H         1.0       0.6966229518415212  0.29769448404884136           0.2824144761610788 1.0000   
         H         H         1.0       0.6726227036339851  0.2616793500995275  0.24563030572523145          1.0000   
         H         H         1.0       0.6574743751950181  0.29072673643165514           0.2315739310136918 1.0000   
         C         C         1.0       0.011424565059583447          0.4493448322033285 0.7751025002557155 1.0000   
         C         C         1.0       0.0017413699101278546         0.4760624833916201 0.78753430195891   1.0000   
         H         H         1.0       0.5019438684441503  0.4354784424613656  0.8053987399035126 1.0000   
         H         H         1.0       0.5142898284241847  0.44252946883138156           0.7688353447676353 1.0000   
         H         H         1.0       0.9897028067541082  0.4855637063733271  0.7701343290334566 1.0000   
         H         H         1.0       0.9897390512931382  0.4742292132696031  0.8070899591127615 1.0000   
         C         C         1.0       0.9581798973557011  0.4134157120560885  0.490010750752238  1.0000   
         C         C         1.0       0.9456244811359995  0.4384841207447791  0.47660107730701595          1.0000   
         H         H         1.0       0.9786468125034704  0.4186773396308517  0.49922767021234793          1.0000   
         H         H         1.0       0.9623753326758557  0.399012774377945   0.472247072715884  1.0000   
         H         H         1.0       0.955841315090475   0.44277429008987046           0.4551840142184719 1.0000   
         H         H         1.0       0.9521349117561363  0.4572061537924703  0.4880388935896498 1.0000   
         C         C         1.0       0.8351488184497914  0.016600916255539885         0.7232037143012033 1.0000   
         C         C         1.0       0.850079113750287   0.5020882506839036  0.7207695840838725 1.0000   
         H         H         1.0       0.8497239878660734  0.01833640561793089           0.7048947610764769 1.0000   
         H         H         1.0       0.8477237336329355  0.021523756545500858         0.7442570409201339 1.0000   
         H         H         1.0       0.8522636115728693  0.5109157601666446  0.7429845350231485 1.0000   
         H         H         1.0       0.8586038795337381  0.5177242757274644  0.7064107112364281 1.0000   
         C         C         1.0       0.8542748157679056  0.2702097358972957  0.6010921936556254 1.0000   
         C         C         1.0       0.8603721045816932  0.24595739311199946           0.5824732180291228 1.0000   
         H         H         1.0       0.8510894359459253  0.2645584689651946  0.6244948491488449 1.0000   
         H         H         1.0       0.8351046088442898  0.27933418311914876           0.5932913451999081 1.0000   
         H         H         1.0       0.8801687380263878  0.23788473395628615           0.5884483069478997 1.0000   
         H         H         1.0       0.863915170223013   0.2542905678504687  0.5595863865065204 1.0000   
         C         C         1.0       0.5380563673093923  0.3230746506481376  0.5512963762530185 1.0000   
         C         C         1.0       0.5401114204361341  0.3361823052577892  0.5203415893648224 1.0000   
         H         H         1.0       0.5538659885367448  0.32904567321059985           0.5668174227310911 1.0000   
         H         H         1.0       0.5417431754429466  0.30197984400634176           0.54908292473774   1.0000   
         H         H         1.0       0.5368574426131124  0.35801843229956276           0.522141676678327  1.0000   
         H         H         1.0       0.5255916845670803  0.3284037390935995  0.5044575258842416 1.0000   
         C         C         1.0       0.8910911736185577  0.31998470408511354           0.8280148253765858 1.0000   
         C         C         1.0       0.8816404441235446  0.3152803447976644  0.7944090862819919 1.0000   
         H         H         1.0       0.8763873007657345  0.33278074803240676           0.8386245228827021 1.0000   
         H         H         1.0       0.910987638814561   0.327875804711693   0.8304860946277077 1.0000   
         H         H         1.0       0.8601765231858004  0.311068680042289   0.7938163128069591 1.0000   
         H         H         1.0       0.8880436402348773  0.2971408581508471  0.7841047249377642 1.0000   
         C         C         1.0       0.9337952632764402  0.9085193977546452  0.5333325631356418 1.0000   
         C         C         1.0       0.9344192555595169  0.881578948383434   0.5277807311703423 1.0000   
         C         C         1.0       0.9280320025518085  0.8644618967433153  0.5507564058686831 1.0000   
         C         C         1.0       0.9239409151146435  0.8735912686961612  0.5792699739068534 1.0000   
         C         C         1.0       0.9216444819499258  0.9006292801765597  0.5825485876840988 1.0000   
         C         C         1.0       0.9268758544975917  0.9171190963472747  0.5595071301416689 1.0000   
         H         H         1.0       0.9390901386589825  0.8745476752278002  0.5054171645454514 1.0000   
         H         H         1.0       0.9315763281440359  0.8437613773351571  0.5457842316589798 1.0000   
         H         H         1.0       0.9189960022167153  0.90902524922033    0.6051466399860574 1.0000   
         H         H         1.0       0.9295502773204729  0.937161782348544   0.5651062335706051 1.0000   
         C         C         1.0       0.9778724264115249  0.8673945211588169  0.6038853536749871 1.0000   
         C         C         1.0       0.9590124943399608  0.846935106809832   0.6027335839895749 1.0000   
         C         C         1.0       0.9683826584262067  0.821655819837711   0.597828345781114  1.0000   
         C         C         1.0       0.9941668121738094  0.8170125749294556  0.5888702921493678 1.0000   
         C         C         1.0       0.5277497233120024  0.8293896948340651  0.5743933781058435 1.0000   
         C         C         1.0       0.518844647693811   0.8519391994497805  0.5864593944231987 1.0000   
         C         C         1.0       0.9282831072211583  0.8543722191278296  0.6070115222845006 1.0000   
         C         C         1.0       0.908626929400663   0.8294938666510464  0.6057029730729294 1.0000   
         C         C         1.0       0.9115795312767705  0.8091859172142672  0.6255888223292245 1.0000   
         C         C         1.0       0.8929369904780802  0.7892074132360598  0.6272210892571899 1.0000   
         C         C         1.0       0.8726311750106772  0.7879279824322734  0.6066257896548801 1.0000   
         C         C         1.0       0.8685458461368417  0.808230043693337   0.587030294714522  1.0000   
         C         C         1.0       0.8872606228352815  0.828958491858109   0.5867832062895364 1.0000   
         C         C         1.0       0.9429283164724878  0.867309802765287   0.6625964471168165 1.0000   
         C         C         1.0       0.9386667269606461  0.8813344218255096  0.687659789056356  1.0000   
         C         C         1.0       0.9136034370975007  0.8917669813805639  0.694255030897284  1.0000   
         C         C         1.0       0.8934875086212589  0.8879919839358604  0.6721373301063057 1.0000   
         C         C         1.0       0.8992723591398815  0.8779922448228041  0.6454611409041086 1.0000   
         C         C         1.0       0.9236729223428979  0.8669079495747261  0.6398783181871632 1.0000   
         C         C         1.0       0.9066797014176337  0.9038212790965979  0.7266747968289399 1.0000   
         C         C         1.0       0.8964164351398911  0.8317793910338345  0.7774765071406013 1.0000   
         C         C         1.0       0.921181887348012   0.8425428733055278  0.7737531328081745 1.0000   
         C         C         1.0       0.9226805471434423  0.8640756272627708  0.755185009892735  1.0000   
         C         C         1.0       0.9004811833083582  0.8781580583202513  0.7441541991742543 1.0000   
         C         C         1.0       0.8765692881176741  0.8670612775486988  0.7501512583760972 1.0000   
         C         C         1.0       0.8741989843491436  0.8444175881755096  0.7681313768089828 1.0000   
         C         C         1.0       0.8837539685857854  0.92537456853848    0.7257242044156317 1.0000   
         C         C         1.0       0.8801451315275346  0.941708652661404   0.7008050539760314 1.0000   
         C         C         1.0       0.8610904676280974  0.961223138830488   0.7015160608917005 1.0000   
         C         C         1.0       0.8462306907621063  0.9664986296014876  0.7257030549014253 1.0000   
         C         C         1.0       0.8508918757580114  0.9505723660969342  0.7499831172643562 1.0000   
         C         C         1.0       0.8698727330302503  0.9304451662398917  0.750809085788763  1.0000   
         C         C         1.0       0.9344584102089716  0.9244458169455263  0.7699724725127525 1.0000   
         C         C         1.0       0.9545016571392758  0.9402502531185355  0.7816718756374506 1.0000   
         C         C         1.0       0.9692815477495597  0.9551440547803962  0.7643532690406561 1.0000   
         C         C         1.0       0.9648825597788454  0.9522950909296383  0.732715383979247  1.0000   
         C         C         1.0       0.9446920318957682  0.9369019370109591  0.7220563269823548 1.0000   
         C         C         1.0       0.9290247640019549  0.9216379168476517  0.7398491680992251 1.0000   
         H         H         1.0       0.9739877686271531  0.8874391145187507  0.6099143190277992 1.0000   
         H         H         1.0       0.9563333743134536  0.8040631267205745  0.6026465911909096 1.0000   
         H         H         1.0       0.5203061808175032  0.7899570326024942  0.5667069449221958 1.0000   
         H         H         1.0       0.5298491016188136  0.869700496600496   0.584527640190087  1.0000   
         H         H         1.0       0.9266292081576935  0.8099752462156203  0.6440487297537593 1.0000   
         H         H         1.0       0.8953590476487744  0.772974840792692   0.6426251412773405 1.0000   
         H         H         1.0       0.8511018832415079  0.8075168643136124  0.5711749486650296 1.0000   
         H         H         1.0       0.8826869119899512  0.8448757786238742  0.5712349367208343 1.0000   
         H         H         1.0       0.9613461356838962  0.8580033548784055  0.6600866168107099 1.0000   
         H         H         1.0       0.9545143131549244  0.8842768145236922  0.7034062448076128 1.0000   
         H         H         1.0       0.8738025035443355  0.895407272925295   0.6762097906601021 1.0000   
         H         H         1.0       0.88340803553971    0.8762726042228239  0.6303037789401723 1.0000   
         H         H         1.0       0.9402608421114191  0.8333206732318602  0.7801889973149119 1.0000   
         H         H         1.0       0.9416342840589123  0.8670824953697988  0.7461651253876754 1.0000   
         H         H         1.0       0.8582960812696093  0.8756310256959619  0.7452048188929227 1.0000   
         H         H         1.0       0.8554481109165213  0.8350015498693764  0.7709028992972898 1.0000   
         H         H         1.0       0.8917614166081319  0.9397716051269696  0.6819308346741068 1.0000   
         H         H         1.0       0.8579040834696817  0.9740041584159485  0.6810151842528362 1.0000   
         H         H         1.0       0.8368112050471995  0.953578503465212   0.7695018568185481 1.0000   
         H         H         1.0       0.8749795128801441  0.9197334851409634  0.7712480029719717 1.0000   
         H         H         1.0       0.9215008176284657  0.9145376264210948  0.7843714123948688 1.0000   
         H         H         1.0       0.9545060538479792  0.9409581734997452  0.8051772675850161 1.0000   
         H         H         1.0       0.9773123810769936  0.9609593490152819  0.7184768152226947 1.0000   
         H         H         1.0       0.9420764016228554  0.9377251911645242  0.6997445665489934 1.0000   
         C         C         1.0       0.6416711624294786  0.7973480726156479  0.27116427914865865          1.0000   
         C         C         1.0       0.628108221831134   0.8212441102821696  0.27344373890048773          1.0000   
         C         C         1.0       0.6080106556330317  0.8227782687899587  0.29351161130851516          1.0000   
         C         C         1.0       0.5988300538788648  0.800956098408398   0.30848454024925526          1.0000   
         C         C         1.0       0.6119940096518529  0.7777052594411775  0.3034224080990401 1.0000   
         C         C         1.0       0.6340804891340392  0.7759232766320832  0.2861934529969741 1.0000   
         H         H         1.0       0.6344141632592318  0.8387905333827022  0.2622531138187173 1.0000   
         H         H         1.0       0.5982679259626883  0.8422598078471226  0.2970541079594902 1.0000   
         H         H         1.0       0.6065344032719292  0.7587500906261949  0.3126817822385448 1.0000   
         H         H         1.0       0.6443335643521272  0.7559156259063105  0.2838010960419409 1.0000   
         C         C         1.0       0.551808270477675   0.7667178338069496  0.2944849153664394 1.0000   
         C         C         1.0       0.5575472462078306  0.7747493061768311  0.32425191609002046          1.0000   
         C         C         1.0       0.5496665873645178  0.7571322871707937  0.3459255969999364 1.0000   
         C         C         1.0       0.5392079786514916  0.73175097083537    0.339747060588368  1.0000   
         C         C         1.0       0.5375031189700282  0.7250388524801458  0.30988629855599437          1.0000   
         C         C         1.0       0.5437308590601801  0.7422068587375865  0.2875281833053796 1.0000   
         C         C         1.0       0.5749776285417417  0.8001348150029424  0.33015824840644536          1.0000   
         C         C         1.0       0.5524703892487133  0.8215601977931157  0.32436824194916025          1.0000   
         C         C         1.0       0.5377254400045112  0.8299656359860315  0.3477791370106922 1.0000   
         C         C         1.0       0.5217177715911318  0.8515079220824961  0.34616110183225024          1.0000   
         C         C         1.0       0.5161983250938963  0.8599524415065912  0.3177509928165719 1.0000   
         C         C         1.0       0.5276109636987444  0.8503742508693705  0.29286812604818024          1.0000   
         C         C         1.0       0.546858716651959   0.8325507872931065  0.29685823495108726          1.0000   
         C         C         1.0       0.6000011819410549  0.7858655570314744  0.37872501431335004          1.0000   
         C         C         1.0       0.6148655876788592  0.7911616457392427  0.403953441476703  1.0000   
         C         C         1.0       0.6194718331482307  0.8160525149523121  0.4141879123536592 1.0000   
         C         C         1.0       0.6096069112831335  0.8363353382958494  0.3960120598329603 1.0000   
         C         C         1.0       0.5956896647601577  0.8309073183861944  0.3699491670644968 1.0000   
         C         C         1.0       0.589269901934594   0.805269336290022   0.3617535974131187 1.0000   
         C         C         1.0       0.6312573925984942  0.8205665821847092  0.44651005718957304          1.0000   
         C         C         1.0       0.5615611941347664  0.831673575607062   0.49966014701742156          1.0000   
         C         C         1.0       0.5703596126810686  0.8066387340441243  0.4917375119060183 1.0000   
         C         C         1.0       0.5910494075897711  0.803171416296382   0.473635167915795  1.0000   
         C         C         1.0       0.6049220560367758  0.8247297375838876  0.46304805578066477          1.0000   
         C         C         1.0       0.5947971529438472  0.8496729781717587  0.4681711515411767 1.0000   
         C         C         1.0       0.5736521465585485  0.853445291930601   0.48668759202461276          1.0000   
         C         C         1.0       0.6518459010349479  0.8433157256892375  0.44613483646571883          1.0000   
         C         C         1.0       0.6695135690942845  0.8427132934916307  0.421596030240072  1.0000   
         C         C         1.0       0.6895914879201182  0.8597236475180707  0.4200365830394881 1.0000   
         C         C         1.0       0.6953141855100426  0.8769438960421009  0.44418113776371115          1.0000   
         C         C         1.0       0.6792339349681505  0.8771843847851203  0.46840997474891705          1.0000   
         C         C         1.0       0.658020624504502   0.8600703128407752  0.47032675982285505          1.0000   
         C         C         1.0       0.6543574293421249  0.7989360666762453  0.4943316160193718 1.0000   
         C         C         1.0       0.6687900404353011  0.7790202327019876  0.5078759793118266 1.0000   
         C         C         1.0       0.6850586470883937  0.7632417475874725  0.49125323016402134          1.0000   
         C         C         1.0       0.6845519459568733  0.7651964865640232  0.46069431754963747          1.0000   
         C         C         1.0       0.6669938729696553  0.7824871307806305  0.4472885650718475 1.0000   
         C         C         1.0       0.6506513543971797  0.7984964484924133  0.46315925947350195          1.0000   
         H         H         1.0       0.5574391090736663  0.7794284947285176  0.2773828969800009 1.0000   
         H         H         1.0       0.5526447027635589  0.761499272806157   0.3688031477405072 1.0000   
         H         H         1.0       0.5324127201481522  0.7184637328879432  0.35647813678421586          1.0000   
         H         H         1.0       0.537237449053961   0.738069524667517   0.2652192510112688 1.0000   
         H         H         1.0       0.5413438983505796  0.818562799739479   0.3679915627938845 1.0000   
         H         H         1.0       0.5099927827672338  0.8563088464165536  0.3659635493893966 1.0000   
         H         H         1.0       0.5221006343600834  0.8563454957514126  0.27029769514763474          1.0000   
         H         H         1.0       0.5565332439881132  0.8235329217486242  0.2783320983110089 1.0000   
         H         H         1.0       0.601898311743143   0.7659508664637974  0.3688690885722372 1.0000   
         H         H         1.0       0.6211296688272796  0.7731868176346238  0.4172679181997883 1.0000   
         H         H         1.0       0.6123307659885846  0.8564043759269855  0.3985081920716138 1.0000   
         H         H         1.0       0.5901938289842855  0.8464279610617683  0.3538121030966745 1.0000   
         H         H         1.0       0.5618623994480699  0.7913086305899667  0.5039183024832239 1.0000   
         H         H         1.0       0.5963598600370812  0.7831905791108573  0.4689545839796552 1.0000   
         H         H         1.0       0.6026445499779066  0.8668002155606507  0.4583395971772359 1.0000   
         H         H         1.0       0.5680976554876138  0.8737996331941342  0.4895382640903775 1.0000   
         H         H         1.0       0.6671930512987135  0.8274397961939509  0.40463084006157635          1.0000   
         H         H         1.0       0.6999048811496911  0.8597665802477928  0.398909239812996  1.0000   
         H         H         1.0       0.6841107119621873  0.887721627546541   0.4883241331744095 1.0000   
         H         H         1.0       0.6475291156743995  0.8587251990236227  0.49096361243424747          1.0000   
         H         H         1.0       0.6425134096090255  0.8120210051384839  0.5071434311079613 1.0000   
         H         H         1.0       0.6719749175629913  0.7779470984620077  0.5308786133227704 1.0000   
         H         H         1.0       0.6979491542569706  0.7534680746792554  0.4473809338915181 1.0000   
         H         H         1.0       0.6689502706429851  0.7863458570450248  0.4224014205785578 1.0000   
         C         C         1.0       0.5093277121138723  0.6025517807409727  0.03107416806237004          1.0000   
         C         C         1.0       0.5144671887542925  0.5880346640791835  0.05606836498407052          1.0000   
         C         C         1.0       0.5196528480278552  0.6002248145908133  0.08355550688456538          1.0000   
         C         C         1.0       0.5188978104949112  0.6272088083923874  0.08534632024734772          1.0000   
         C         C         1.0       0.5151027985754828  0.6421174760164476  0.05983754630632852          1.0000   
         C         C         1.0       0.5103076797539334  0.6292987217845428  0.033838265607577626         1.0000   
         H         H         1.0       0.5115468412985591  0.5662107706318319  0.05600734239288871          1.0000   
         H         H         1.0       0.5223516936591527  0.5876577985920465  0.10297853234614958          1.0000   
         H         H         1.0       0.5142346263298618  0.6639147971716164  0.060344398630816955         1.0000   
         H         H         1.0       0.5062444319657267  0.6416712807452191  0.01610544502455475          1.0000   
         C         C         1.0       0.9815910757547267  0.6466197802357599  0.10956812237375797          1.0000   
         C         C         1.0       0.0005574391791836053         0.6642843988957199 0.10161374885798391          1.0000   
         C         C         1.0       0.9924719400433649  0.6870754967712922  0.08768089504061538          1.0000   
         C         C         1.0       0.9676835460038897  0.6920699039525765  0.07993067865824524          1.0000   
         C         C         1.0       0.9487611946966686  0.673496219690287   0.0864838082081776 1.0000   
         C         C         1.0       0.9563441581457266  0.6507299886308641  0.10072942112582571          1.0000   
         C         C         1.0       0.5177859600938246  0.6435631267793076  0.11756158743269175          1.0000   
         C         C         1.0       0.5353487154526299  0.6691929834882138  0.11802554917480439          1.0000   
         C         C         1.0       0.5305796665635574  0.6897766677538407  0.1375216179869519 1.0000   
         C         C         1.0       0.5477228016198702  0.7100602720592715  0.14083781037248297          1.0000   
         C         C         1.0       0.5697740196447436  0.7106759021192823  0.12404320319158962          1.0000   
         C         C         1.0       0.5753345440157492  0.6888931364869814  0.10592492878016534          1.0000   
         C         C         1.0       0.5580178416312476  0.6690597257298662  0.10224548185470146          1.0000   
         C         C         1.0       0.5190300421846716  0.6286208844906249  0.17149394709062335          1.0000   
         C         C         1.0       0.5291935680383945  0.6149405393812845  0.19577252373654644          1.0000   
         C         C         1.0       0.5521137665762623  0.60138803828604    0.19496531420435073          1.0000   
         C         C         1.0       0.5658474798318083  0.6029944560198602  0.16785420074901597          1.0000   
         C         C         1.0       0.556164062997167   0.6162086516384123  0.14395831174040882          1.0000   
         C         C         1.0       0.5321112183028058  0.6298802995819579  0.14457626195318382          1.0000   
         C         C         1.0       0.5639575720174068  0.5877476053554941  0.22601194019712792          1.0000   
         C         C         1.0       0.5636940016405348  0.6566299904179573  0.2860537600013767 1.0000   
         C         C         1.0       0.5467059317551264  0.635964117353244   0.2907096296609748 1.0000   
         C         C         1.0       0.5470536597122385  0.614174085203828   0.27248878729053183          1.0000   
         C         C         1.0       0.5644384251036234  0.6126921263779324  0.249085954825096  1.0000   
         C         C         1.0       0.5804989163871231  0.6341948440510071  0.24363608753693472          1.0000   
         C         C         1.0       0.5796401388479472  0.656271732782028   0.2609351882251219 1.0000   
         C         C         1.0       0.5920041354686397  0.57489410138989    0.21899252859353557          1.0000   
         C         C         1.0       0.5927099353833379  0.5546177948092236  0.19890316913318223          1.0000   
         C         C         1.0       0.6137256800019222  0.5400486725757088  0.19337387554134877          1.0000   
         C         C         1.0       0.6356683446904676  0.5411484436839266  0.2119360483682475 1.0000   
         C         C         1.0       0.6354198395757463  0.5594843889514182  0.23505444088800373          1.0000   
         C         C         1.0       0.6139412079567873  0.5762905842393069  0.23726380357298849          1.0000   
         C         C         1.0       0.5561248533063471  0.551721763238383   0.2633554636931012 1.0000   
         C         C         1.0       0.5413647546093446  0.5327959173096853  0.27614991479300643          1.0000   
         C         C         1.0       0.5168163152709627  0.5267653923486939  0.2631856061891569 1.0000   
         C         C         1.0       0.508776697896891   0.5391293726432475  0.23650355474233664          1.0000   
         C         C         1.0       0.5243572427253219  0.5574131490163231  0.22372768496361714          1.0000   
         C         C         1.0       0.5474648495786161  0.5646730524485563  0.23731215131340447          1.0000   
         H         H         1.0       0.9884145984661312  0.6270393553356368  0.11763213228736846          1.0000   
         H         H         1.0       0.007486546896454671          0.7025999553417425 0.08109726182311304          1.0000   
         H         H         1.0       0.9640996294879876  0.7085418971571436  0.06779020335911665          1.0000   
         H         H         1.0       0.9412836926104337  0.6361773166537134  0.1080103426602742 1.0000   
         H         H         1.0       0.5129104833251128  0.6909209070285847  0.14994305302665625          1.0000   
         H         H         1.0       0.5422027899751226  0.7259859716482019  0.15588300517961332          1.0000   
         H         H         1.0       0.591405809013225   0.6854739471509649  0.09229613882298197          1.0000   
         H         H         1.0       0.5651864553145128  0.6516643477524794  0.09037383928892595          1.0000   
         H         H         1.0       0.00994592006961903           0.6514385567841472 0.15972903274328523          1.0000   
         H         H         1.0       0.518084604165081   0.61503369170702    0.21665291601490413          1.0000   
         H         H         1.0       0.5857808914885098  0.5964528363895909  0.16537062174598524          1.0000   
         H         H         1.0       0.5656809925103313  0.6168167183172153  0.12181428431459893          1.0000   
         H         H         1.0       0.5332741859313833  0.6376734177290074  0.3090264582946874 1.0000   
         H         H         1.0       0.5337207974146143  0.5985992371101873  0.27960857983067766          1.0000   
         H         H         1.0       0.5926038686384411  0.6346580233492041  0.2228428880137808 1.0000   
         H         H         1.0       0.5911833364838566  0.6733163002379998  0.2564351656114097 1.0000   
         H         H         1.0       0.5761101276912927  0.5507119006361101  0.18607767401516445          1.0000   
         H         H         1.0       0.6130527678854258  0.525167112054358   0.17676545838067126          1.0000   
         H         H         1.0       0.6514463854301641  0.5605461812482601  0.25160857544848353          1.0000   
         H         H         1.0       0.6146798991097433  0.5912566460873823  0.25370194889302594          1.0000   
         H         H         1.0       0.572679467915172   0.5608681569397421  0.27644848626821644          1.0000   
         H         H         1.0       0.5492508105012702  0.5238929116680736  0.2957561747232844 1.0000   
         H         H         1.0       0.49008846997342087           0.5358044341560861 0.22537424565862962          1.0000   
         H         H         1.0       0.517317487434944   0.5657124809845377  0.20360148368648015          1.0000   
         C         C         1.0       0.8269829557149068  0.7022600765733098  0.7790975619407831 1.0000   
         C         C         1.0       0.8531350301169476  0.6960163508733593  0.7777634247738332 1.0000   
         C         C         1.0       0.8679455368881218  0.6912788325914646  0.8030043665276922 1.0000   
         C         C         1.0       0.856664919645937   0.6928781131869011  0.8311224966590882 1.0000   
         C         C         1.0       0.8287867268345515  0.695405256498615   0.8307644212490296 1.0000   
         C         C         1.0       0.8135266067325624  0.7009229796626114  0.8064333046886393 1.0000   
         H         H         1.0       0.8628146640642183  0.6980814600611694  0.7564683456410395 1.0000   
         H         H         1.0       0.8896867685577738  0.6928808173578288  0.8007431650864332 1.0000   
         H         H         1.0       0.8176484235069874  0.694608632015713   0.8502817890452804 1.0000   
         H         H         1.0       0.792751442870551   0.703031594167041   0.8106864249153742 1.0000   
         C         C         1.0       0.8672163733126743  0.7467220432236958  0.8535247660727578 1.0000   
         C         C         1.0       0.8858039576655318  0.7256540853151668  0.8533825179233654 1.0000   
         C         C         1.0       0.9112110665938962  0.7314579169753801  0.84414582225735   1.0000   
         C         C         1.0       0.9195957365515353  0.7571509929395809  0.8387351549205329 1.0000   
         C         C         1.0       0.899693474095092   0.7762861023050919  0.838970541785357  1.0000   
         C         C         1.0       0.873672542497435   0.7714234151479895  0.845707720169161  1.0000   
         C         C         1.0       0.8744011899270671  0.696751806311951   0.8608710570209924 1.0000   
         C         C         1.0       0.8989864690059349  0.6761711142916682  0.8654979635952398 1.0000   
         C         C         1.0       0.9191445953130456  0.6814836323913236  0.8848356107530805 1.0000   
         C         C         1.0       0.9417883961446798  0.665584577138068   0.8868067867318347 1.0000   
         C         C         1.0       0.9446300247836249  0.643570941403766   0.8693483996539768 1.0000   
         C         C         1.0       0.9236703552081889  0.6361608957508407  0.850936587531239  1.0000   
         C         C         1.0       0.900716106329535   0.6513870122990095  0.8498158257993476 1.0000   
         C         C         1.0       0.8567333198344403  0.7129281395779942  0.9115750985787142 1.0000   
         C         C         1.0       0.8435682549813389  0.7102281154491048  0.9374646779506185 1.0000   
         C         C         1.0       0.8326264042655189  0.6863706311172292  0.9449609126591547 1.0000   
         C         C         1.0       0.8331452208594888  0.6662310742693405  0.923420630811583  1.0000   
         C         C         1.0       0.8473590905545235  0.668563493693869   0.8984108382928403 1.0000   
         C         C         1.0       0.8588412779609845  0.6927247222012455  0.891235265275381  1.0000   
         C         C         1.0       0.8195301989961176  0.681694012644763   0.977264423110208  1.0000   
         C         C         1.0       0.8948787814067921  0.6662266634831429  0.021865021269149906         1.0000   
         C         C         1.0       0.8871068901707737  0.6914131316717674  0.016157674507902703         1.0000   
         C         C         1.0       0.8625065332947057  0.69617416487522    0.005669941337034915         1.0000   
         C         C         1.0       0.8457864573567965  0.6751999564868788  0.9971825227347243 1.0000   
         C         C         1.0       0.8543544316943052  0.6497204304602083  0.003930150244792374         1.0000   
         C         C         1.0       0.8775182244433116  0.6459438168342408  0.019397194446226496         1.0000   
         C         C         1.0       0.7956205374926969  0.6614289865208924  0.9778716671644916 1.0000   
         C         C         1.0       0.7777286894634049  0.6594590759941378  0.954327138768824  1.0000   
         C         C         1.0       0.7591827070740658  0.6408044294397423  0.9530797487083045 1.0000   
         C         C         1.0       0.7560848360052551  0.6238897269670433  0.9759402498522853 1.0000   
         C         C         1.0       0.7734395768006807  0.6247843595457792  0.9992245235328037 1.0000   
         C         C         1.0       0.7923913729431347  0.6440822981212174  0.00146423824311453          1.0000   
         C         C         1.0       0.8026811893644958  0.708599288676276   0.02214411777422527          1.0000   
         C         C         1.0       0.7886067787107865  0.729150867555565   0.035007857597376575         1.0000   
         C         C         1.0       0.7742200581613288  0.7468189847046353  0.017207477047199517         1.0000   
         C         C         1.0       0.7766131245374539  0.7440134178375063  0.9867590961102083 1.0000   
         C         C         1.0       0.7919007955550621  0.7247902476110192  0.9744496166998678 1.0000   
         C         C         1.0       0.8040053854764282  0.70512501183145    0.9917109011549576 1.0000   
         H         H         1.0       0.8467733770616162  0.7428488166276056  0.8584328374145325 1.0000   
         H         H         1.0       0.9258289617633406  0.7157300709418434  0.8418460303543016 1.0000   
         H         H         1.0       0.9390849368004869  0.7596020510353204  0.8296612471959254 1.0000   
         H         H         1.0       0.857596792330612   0.7869098079536819  0.8429663315054643 1.0000   
         H         H         1.0       0.9154831969066819  0.697582992119872   0.8997476778828931 1.0000   
         H         H         1.0       0.9549579893306037  0.6670806996691844  0.905420399248493  1.0000   
         H         H         1.0       0.9272136566320319  0.6201642067006702  0.8352135368404318 1.0000   
         H         H         1.0       0.8878816152965621  0.647826946074987   0.8295448977928181 1.0000   
         H         H         1.0       0.864785638828712   0.7321091218421079  0.9063793428039665 1.0000   
         H         H         1.0       0.8425725011572044  0.727263103911187   0.9505835508321562 1.0000   
         H         H         1.0       0.8246623534902947  0.6474190586612808  0.9280234527150949 1.0000   
         H         H         1.0       0.848367691636232   0.6521667717610965  0.8840104095682779 1.0000   
         H         H         1.0       0.9004386868882347  0.7085051256842372  0.019220729133030183         1.0000   
         H         H         1.0       0.8584972290345404  0.7161169466722951  0.9977972448049697 1.0000   
         H         H         1.0       0.842902733301331   0.6318970297748828  0.9968264573552233 1.0000   
         H         H         1.0       0.8831940063089266  0.6257995017589354  0.027824900228542202         1.0000   
         H         H         1.0       0.7768673904488651  0.673523366889129   0.9361959113962564 1.0000   
         H         H         1.0       0.7448770740601591  0.6400846125803491  0.9343303616881026 1.0000   
         H         H         1.0       0.7720725346269709  0.6103017953607126  0.016659836155551565         1.0000   
         H         H         1.0       0.804788157773266   0.6447559478451416  0.02074028952584456          1.0000   
         H         H         1.0       0.8099353688944088  0.6930753579715725  0.03713733461627795          1.0000   
         H         H         1.0       0.7855741006044913  0.7284817532433097  0.05879672357454462          1.0000   
         H         H         1.0       0.7645866679903209  0.7555778773429864  0.9716478470880926 1.0000   
         H         H         1.0       0.7935703619637201  0.7247424700092462  0.9511771406637413 1.0000   
         C         C         1.0       0.5415050214786505  0.5605091583040861  0.985727659633228  1.0000   
         C         C         1.0       0.5588736488320908  0.5801499550829453  0.9806156054115739 1.0000   
         C         C         1.0       0.5837877151396974  0.5748768290396125  0.9700469875986574 1.0000   
         C         C         1.0       0.5923912242111888  0.5490632559681633  0.9691845143531114 1.0000   
         C         C         1.0       0.575040310923403   0.5291758508019614  0.9754748481717945 1.0000   
         C         C         1.0       0.549641479991856   0.5351268471232056  0.9822288369439655 1.0000   
         H         H         1.0       0.5518301363550362  0.6017674850672083  0.9797895181485508 1.0000   
         H         H         1.0       0.5974112021014071  0.5903843104955465  0.9636019605681017 1.0000   
         H         H         1.0       0.5819227940137425  0.5088972391517446  0.9741396779238414 1.0000   
         H         H         1.0       0.5393435329159316  0.518158781844693   0.9874268785430228 1.0000   
         C         C         1.0       0.630918325910846   0.5114992652671582  0.00036704610466831156       1.0000   
         C         C         1.0       0.6331068943554968  0.5160182577421126  0.9705397549584944 1.0000   
         C         C         1.0       0.648565956955635   0.4987952381851776  0.9548981488822514 1.0000   
         C         C         1.0       0.6392068997521816  0.979877258154242   0.9677939645733754 1.0000   
         C         C         1.0       0.6353054686336554  0.9791548429211272  0.9981553109804128 1.0000   
         C         C         1.0       0.6250736767931369  0.0008507264952610782        0.012954979030667996         1.0000   
         C         C         1.0       0.6207317699244831  0.5407541276147064  0.9551981467331379 1.0000   
         C         C         1.0       0.6430080447468715  0.5616187678009581  0.9611982530337002 1.0000   
         C         C         1.0       0.6630008592769085  0.5637087035285311  0.9405282908407051 1.0000   
         C         C         1.0       0.682860390286859   0.5809972420139002  0.944164379440923  1.0000   
         C         C         1.0       0.6849201899161775  0.5952155038337699  0.9692660507329551 1.0000   
         C         C         1.0       0.6673003561007872  0.5921985392135531  0.9923628681778409 1.0000   
         C         C         1.0       0.6454046527474286  0.577256626047038   0.9873365516673424 1.0000   
         C         C         1.0       0.6027200354045978  0.5176851643050179  0.9060268302371904 1.0000   
         C         C         1.0       0.5903384003736362  0.5190507625608655  0.8787328905647929 1.0000   
         C         C         1.0       0.5868804122575219  0.5419591474994311  0.8635492437690917 1.0000   
         C         C         1.0       0.5980271863240586  0.5641835991673142  0.8764361639889191 1.0000   
         C         C         1.0       0.6084991597030059  0.563682327612671   0.9040346978471998 1.0000   
         C         C         1.0       0.6121889277227577  0.5405024194123952  0.9199988892251548 1.0000   
         C         C         1.0       0.5697377102241167  0.5462345083557334  0.8333288321812641 1.0000   
         C         C         1.0       0.6403888102251406  0.5552148269090906  0.7779295583012875 1.0000   
         C         C         1.0       0.6315221312718405  0.530956044516295   0.7869904127410587 1.0000   
         C         C         1.0       0.6095825996562606  0.5295433230153399  0.8047166640061888 1.0000   
         C         C         1.0       0.594190538515207   0.5510761491398312  0.8119365541447977 1.0000   
         C         C         1.0       0.6038083386759987  0.5755271422968684  0.8031178661543753 1.0000   
         C         C         1.0       0.6268956571708707  0.5776897124590744  0.7868693457237173 1.0000   
         C         C         1.0       0.548041698905797   0.5696621916724893  0.8373772064647883 1.0000   
         C         C         1.0       0.5351050697415243  0.5717337002078481  0.8644524841498515 1.0000   
         C         C         1.0       0.5162886610141583  0.5906743523565009  0.869431559663546  1.0000   
         C         C         1.0       0.5073152404564442  0.6065396708743163  0.8456326122597911 1.0000   
         C         C         1.0       0.5179266497954658  0.6027616734138325  0.8175828560061459 1.0000   
         C         C         1.0       0.5381637757676829  0.5837805640068455  0.8125864419142422 1.0000   
         C         C         1.0       0.5475531646349213  0.5180440819814691  0.7903937281687607 1.0000   
         C         C         1.0       0.5274987279809571  0.5023131475983171  0.7800854691962352 1.0000   
         C         C         1.0       0.5135130618338986  0.48794120795403045           0.7993465072627247 1.0000   
         C         C         1.0       0.5202497804671474  0.48984376537537416           0.8283641371993663 1.0000   
         C         C         1.0       0.5372119418686965  0.508150151673246   0.8398882296573469 1.0000   
         C         C         1.0       0.5520394634709196  0.5235194553335049  0.8206056634179004 1.0000   
         H         H         1.0       0.6213925167882371  0.5269707175871321  0.014433836097812201         1.0000   
         H         H         1.0       0.6504736522673388  0.5004740344087736  0.9310465955863275 1.0000   
         H         H         1.0       0.6467552860236024  0.9632387887822611  0.9533958705555032 1.0000   
         H         H         1.0       0.6249937007584512  0.0006125345365461943        0.03713386971034604          1.0000   
         H         H         1.0       0.6633268636826319  0.5492894887259447  0.9214152527863526 1.0000   
         H         H         1.0       0.6950839520824326  0.5814498782016682  0.9247695096603363 1.0000   
         H         H         1.0       0.6677386066238953  0.6044971443454075  0.011481620951796015         1.0000   
         H         H         1.0       0.6329258077631401  0.5757201392418682  0.005789522717776649         1.0000   
         H         H         1.0       0.604638032087077   0.4988065384378421  0.9165183336227105 1.0000   
         H         H         1.0       0.5847651106072201  0.5009422567547668  0.8702701292015805 1.0000   
         H         H         1.0       0.5980257628556219  0.5835150310419178  0.8673070872553234 1.0000   
         H         H         1.0       0.6133609444096224  0.5821841434215551  0.9145951942887802 1.0000   
         H         H         1.0       0.6406329479217987  0.514249343295093   0.7788601135640962 1.0000   
         H         H         1.0       0.6057243821688177  0.5101737963940316  0.8123588831928967 1.0000   
         H         H         1.0       0.595162883926931   0.592680409310855   0.8158013788151954 1.0000   
         H         H         1.0       0.6356127247217206  0.5967229217162158  0.781589245299779  1.0000   
         H         H         1.0       0.5395626482670468  0.55910429270761    0.8844741354960741 1.0000   
         H         H         1.0       0.5082807793732455  0.59225913296759    0.8926989457372422 1.0000   
         H         H         1.0       0.5120373340707169  0.6147715519919009  0.7995613593559692 1.0000   
         H         H         1.0       0.5485037908151648  0.5827683294282344  0.7915707420098048 1.0000   
         H         H         1.0       0.5557602108035327  0.5298786138128024  0.7730516384440287 1.0000   
         H         H         1.0       0.5222023040654591  0.5025686916106654  0.7565685648170164 1.0000   
         H         H         1.0       0.508500286879756   0.4768962498342119  0.8414905220332431 1.0000   
         H         H         1.0       0.5420698849058243  0.5107942411849805  0.8628393999729083 1.0000   
         C         C         1.0       0.804497607678516   0.6742432574689511  0.7174353921676722 1.0000   
         C         C         1.0       0.8203794601125967  0.6514861633019247  0.7133814672198733 1.0000   
         C         C         1.0       0.8102517281036892  0.6290304062082573  0.7035671857094121 1.0000   
         C         C         1.0       0.7831756263437407  0.6280066948729991  0.6973001149809787 1.0000   
         C         C         1.0       0.7675624926804242  0.6506325475168586  0.702685862771779  1.0000   
         C         C         1.0       0.777512991811691   0.673506105913949   0.7127572134285799 1.0000   
         H         H         1.0       0.8418948244560925  0.6516953962799006  0.7118907469299921 1.0000   
         H         H         1.0       0.8240459215835727  0.6128887730112489  0.6953076307843448 1.0000   
         H         H         1.0       0.747049194483302   0.6511003264561888  0.6959512773837288 1.0000   
         H         H         1.0       0.7657758167000182  0.6916168578974784  0.7145924648054334 1.0000   
         C         C         1.0       0.7328609988799485  0.6027033808758783  0.7241844801270134 1.0000   
         C         C         1.0       0.7403418525164137  0.5972707196211094  0.6951468202779091 1.0000   
         C         C         1.0       0.7240018356110673  0.5814345773454064  0.6778546797663556 1.0000   
         C         C         1.0       0.6999818332553444  0.5726486833468353  0.6892945698807944 1.0000   
         C         C         1.0       0.6922837330944271  0.5807591951297951  0.7178021668207222 1.0000   
         C         C         1.0       0.709320312921071   0.5944028889340123  0.7347538178163464 1.0000   
         C         C         1.0       0.770385424442979   0.6025075741036163  0.6826016467723947 1.0000   
         C         C         1.0       0.7856760279256079  0.5752324606019523  0.6900434061016879 1.0000   
         C         C         1.0       0.7887139899272624  0.5541822457452967  0.6696445440378029 1.0000   
         C         C         1.0       0.7986915365447745  0.5304312417527516  0.6774885340143889 1.0000   
         C         C         1.0       0.8065774357061226  0.5259188256721454  0.7070098938303442 1.0000   
         C         C         1.0       0.8029319263560152  0.5455719725725615  0.7285499804014725 1.0000   
         C         C         1.0       0.7927609612933991  0.5697802064950491  0.7194085992134969 1.0000   
         C         C         1.0       0.7502576109318901  0.6267705777766196  0.6351145274709481 1.0000   
         C         C         1.0       0.7540965724505126  0.6392012496216377  0.6077822488600638 1.0000   
         C         C         1.0       0.7790664970561111  0.6397200666698009  0.596189236079129  1.0000   
         C         C         1.0       0.7982087165145639  0.6246610060566744  0.6099628483774545 1.0000   
         C         C         1.0       0.7937300885208889  0.6104208429477288  0.6346221712842933 1.0000   
         C         C         1.0       0.7707540426785175  0.6130261370971446  0.6490582236200699 1.0000   
         C         C         1.0       0.7881815245005596  0.6579619150296875  0.5687008787581332 1.0000   
         C         C         1.0       0.8007844121299772  0.5936356039201739  0.5047871357000454 1.0000   
         C         C         1.0       0.7766027861628836  0.6036702365446064  0.5096133562322895 1.0000   
         C         C         1.0       0.7724599762890408  0.6240962086748026  0.5296632551503158 1.0000   
         C         C         1.0       0.7929127021454976  0.6353619076985452  0.5455853880045657 1.0000   
         C         C         1.0       0.8177711508741798  0.6248098789088592  0.5405461002621764 1.0000   
         C         C         1.0       0.8214407428852032  0.6052739345304261  0.5196430988041374 1.0000   
         C         C         1.0       0.8113667275669807  0.6765305585132017  0.5797265185274754 1.0000   
         C         C         1.0       0.8112970283697717  0.6868612444174907  0.6081136032772584 1.0000   
         C         C         1.0       0.8288751790839528  0.7064763672728173  0.6168259261245453 1.0000   
         C         C         1.0       0.8477866041286541  0.7150305465483582  0.5974279034317638 1.0000   
         C         C         1.0       0.847693876125572   0.7057321888304141  0.5687265742295321 1.0000   
         C         C         1.0       0.8300474102539335  0.6861846134288822  0.5609691260903598 1.0000   
         C         C         1.0       0.7692868840838153  0.6887867533738347  0.5280541536410942 1.0000   
         C         C         1.0       0.754920248194408   0.7104907863721268  0.5173169598761737 1.0000   
         C         C         1.0       0.7377065596180834  0.72290188421602    0.5346662093709106 1.0000   
         C         C         1.0       0.7372845400823532  0.7156595322293491  0.5640141461272592 1.0000   
         C         C         1.0       0.7506947131019454  0.6935143755962445  0.5742935393949311 1.0000   
         C         C         1.0       0.768054672711645   0.6798335565468016  0.5559588262228692 1.0000   
         H         H         1.0       0.7452424600988883  0.6128395476484538  0.7411171575438873 1.0000   
         H         H         1.0       0.7309110968473067  0.5769448522118004  0.655206452998247  1.0000   
         H         H         1.0       0.6877775156136617  0.5608154216984806  0.676541041686358  1.0000   
         H         H         1.0       0.7022454956821019  0.5990526121990299  0.7562896001035914 1.0000   
         H         H         1.0       0.7811513083225397  0.5542617331859012  0.6464963994341547 1.0000   
         H         H         1.0       0.8009099373129707  0.5161707086233286  0.6608880201664924 1.0000   
         H         H         1.0       0.8080893399422966  0.5430738491937646  0.7526820800300285 1.0000   
         H         H         1.0       0.7884622288950472  0.584971761692695   0.7355993716954649 1.0000   
         H         H         1.0       0.732821326012161   0.6284624108971125  0.647630585791914  1.0000   
         H         H         1.0       0.7391692772135067  0.6520158003620201  0.6005917554663236 1.0000   
         H         H         1.0       0.81772974732899    0.6240596162086324  0.599505765632569  1.0000   
         H         H         1.0       0.8094576374370942  0.5983138563204079  0.642809158765892  1.0000   
         H         H         1.0       0.7599638217413281  0.597320119715708   0.4950391652504068 1.0000   
         H         H         1.0       0.7528643255319614  0.6316589027243495  0.5303476546883661 1.0000   
         H         H         1.0       0.835503798971977   0.630387477035981   0.5523769457834585 1.0000   
         H         H         1.0       0.8406690985257878  0.5996041099406497  0.512534789501252  1.0000   
         H         H         1.0       0.7967560708433721  0.6832723630952393  0.6246901404561979 1.0000   
         H         H         1.0       0.825950365044755   0.7134499205674933  0.6388103282125653 1.0000   
         H         H         1.0       0.8608706734659028  0.7129917806427961  0.5526455989529773 1.0000   
         H         H         1.0       0.8278868457380395  0.680080471821398   0.5384506479346194 1.0000   
         H         H         1.0       0.7822387862108444  0.6801879661764244  0.5126514825291859 1.0000   
         H         H         1.0       0.7591878431358752  0.7179203480365814  0.494019515331244  1.0000   
         H         H         1.0       0.72629946239662    0.7277497532297024  0.5784094680056553 1.0000   
         H         H         1.0       0.750731221465465   0.6923971802239682  0.5974409214464595 1.0000   
         C         C         1.0       0.9149501175682935  0.9299633776327788  0.4662231541568007 1.0000   
         C         C         1.0       0.8974059207585086  0.9100099434776822  0.4613402196141743 1.0000   
         C         C         1.0       0.8719852164813714  0.9151969751297178  0.44999654871099487          1.0000   
         C         C         1.0       0.8650159055301769  0.9416400748955556  0.443416263220982  1.0000   
         C         C         1.0       0.8829372998187979  0.9616258988015759  0.44935507648675055          1.0000   
         C         C         1.0       0.906623715988539   0.9562268939054543  0.4620425250403822 1.0000   
         H         H         1.0       0.9021408273127087  0.8908592169112347  0.46565633652613203          1.0000   
         H         H         1.0       0.8584059811650395  0.8987135465719424  0.44661022973216374          1.0000   
         H         H         1.0       0.8797262030128592  0.9826791655964476  0.4453903332292121 1.0000   
         H         H         1.0       0.9198555602045991  0.9722161506332256  0.4678362595494793 1.0000   
         C         C         1.0       0.8290427028765218  0.9749472795449209  0.4752797101801208 1.0000   
         C         C         1.0       0.8253022759720003  0.9743940292345052  0.4445234351725189 1.0000   
         C         C         1.0       0.8125522717851765  0.9951503563205505  0.43116261727432736          1.0000   
         C         C         1.0       0.7982364992622442  0.5205145012935192  0.43976449334608947          1.0000   
         C         C         1.0       0.7988325746153497  0.5236768489891899  0.47024202323205627          1.0000   
         C         C         1.0       0.8107893810244905  0.5042031891143207  0.4873327953469981 1.0000   
         C         C         1.0       0.8368477534005949  0.9488098732333768  0.42796297925301663          1.0000   
         C         C         1.0       0.8128768344784914  0.9294932897349661  0.4308379287359572 1.0000   
         C         C         1.0       0.7938605312954213  0.9279960433365558  0.4083920505227118 1.0000   
         C         C         1.0       0.7742680725584207  0.9109975126889243  0.41101499335131575          1.0000   
         C         C         1.0       0.7710476220292126  0.8953890142258335  0.4357477722232825 1.0000   
         C         C         1.0       0.787527015020306   0.8987525259446035  0.4593897062822816 1.0000   
         C         C         1.0       0.8090052682679033  0.9148034582658979  0.45626895097175946          1.0000   
         C         C         1.0       0.8545218834640224  0.9754965793717785  0.38191481683271244          1.0000   
         C         C         1.0       0.866533678313504   0.9768124647647543  0.3544567905868805 1.0000   
         C         C         1.0       0.871623473647246   0.9539767572031229  0.33783792954910163          1.0000   
         C         C         1.0       0.8597916827727872  0.9308391419703524  0.34909907184491884          1.0000   
         C         C         1.0       0.8487791519806095  0.9297582677132018  0.37666210777094017          1.0000   
         C         C         1.0       0.8458675850887161  0.9523267189194966  0.3942903185437799 1.0000   
         C         C         1.0       0.8867381326493903  0.9522324125495601  0.3077967409194757 1.0000   
         C         C         1.0       0.8293285226704826  0.962953786037674   0.23651351166797505          1.0000   
         C         C         1.0       0.8318464900151062  0.982232031562133   0.25820242867229853          1.0000   
         C         C         1.0       0.8491301992322168  0.9785276139553248  0.2811398157311517 1.0000   
         C         C         1.0       0.8635075687110229  0.954119401893659   0.2838924189395617 1.0000   
         C         C         1.0       0.8569497082899041  0.9330851436940709  0.2660763509981507 1.0000   
         C         C         1.0       0.8396620375126196  0.937668405425259   0.24233391560581719          1.0000   
         C         C         1.0       0.9090949640333438  0.9297245316455085  0.3080866335950293 1.0000   
         C         C         1.0       0.9195818681926086  0.9211095201848971  0.3342985648035228 1.0000   
         C         C         1.0       0.9424665237607358  0.9051487176664365  0.33618847981391886          1.0000   
         C         C         1.0       0.9522172252185371  0.8945596050958577  0.31025147503451916          1.0000   
         C         C         1.0       0.9414663987415074  0.9027377327641614  0.283587445378505  1.0000   
         C         C         1.0       0.9202740315678458  0.9197122933395153  0.2817364120205925 1.0000   
         C         C         1.0       0.9106908098701936  0.9840329501124295  0.2724919025794345 1.0000   
         C         C         1.0       0.9286133093188029  0.003547143564422983         0.265438774270344  1.0000   
         C         C         1.0       0.9440852520425378  0.01456709055901162           0.28631566980076   1.0000   
         C         C         1.0       0.94039334879978    0.00871658568829714           0.315642983558032  1.0000   
         C         C         1.0       0.9216590806720999  0.9892428951846369  0.32324368235972256          1.0000   
         C         C         1.0       0.9067148746084627  0.9762001096967752  0.300800500292688  1.0000   
         H         H         1.0       0.8365713671638927  0.9566852114553779  0.48618434445008807          1.0000   
         H         H         1.0       0.808350062716749   0.9976115843878534  0.4076634444891577 1.0000   
         H         H         1.0       0.7876273486789929  0.5365027238269758  0.42745906409735496          1.0000   
         H         H         1.0       0.8098765824770854  0.5044057801613977  0.5104965739883284 1.0000   
         H         H         1.0       0.7912301948028396  0.9418757370401923  0.38870237479160946          1.0000   
         H         H         1.0       0.7594478899041438  0.910628600144717   0.3934943950918031 1.0000   
         H         H         1.0       0.7862765276193933  0.8864127842826364  0.47868758226570707          1.0000   
         H         H         1.0       0.8231159894670187  0.9169572734903532  0.47444125583694535          1.0000   
         H         H         1.0       0.8543907725198411  0.9937592374361662  0.39486027636110854          1.0000   
         H         H         1.0       0.8724847973084393  0.996422482496743   0.3497554144121044 1.0000   
         H         H         1.0       0.8626779288614147  0.9137840606962352  0.3351174177127821 1.0000   
         H         H         1.0       0.8434404558656565  0.9118083436622026  0.38577669650000884          1.0000   
         H         H         1.0       0.824042892644843   0.0029102454934335498        0.2565404867691315 1.0000   
         H         H         1.0       0.8525180644990518  0.9948602847404727  0.2955585151133847 1.0000   
         H         H         1.0       0.8640070828530003  0.9127243428435905  0.2722536853664493 1.0000   
         H         H         1.0       0.8390931446799489  0.9210544012033379  0.22621931605954373          1.0000   
         H         H         1.0       0.9138399420841962  0.9316314381183456  0.35440049903751314          1.0000   
         H         H         1.0       0.9499668702837778  0.901682085752856   0.35888030551966715          1.0000   
         H         H         1.0       0.9492204372887046  0.8967043785120221  0.262892939731709  1.0000   
         H         H         1.0       0.9154091789811324  0.9285921261777119  0.2604241638403929 1.0000   
         H         H         1.0       0.9007162378813918  0.9749932683897107  0.2528308272885733 1.0000   
         H         H         1.0       0.9331239847906094  0.006507534890498823         0.24291283084297252          1.0000   
         H         H         1.0       0.9504872597204275  0.017687004918833127         0.33436350409675475          1.0000   
         H         H         1.0       0.9215194816400242  0.9822383390353557  0.3465737333766612 1.0000   
         C         C         1.0       0.70088526401724    0.8305266563596128  0.24471147609576588          1.0000   
         C         C         1.0       0.6916952061299091  0.8543439274626788  0.2531129878810283 1.0000   
         C         C         1.0       0.6923476793298439  0.8755026949296868  0.23438640626819932          1.0000   
         C         C         1.0       0.7087360362683207  0.8743403555704619  0.20867604953669938          1.0000   
         C         C         1.0       0.7204537200772969  0.8501451286671791  0.20354019078752622          1.0000   
         C         C         1.0       0.715994833187043   0.8277407119172729  0.22040681280007365          1.0000   
         H         H         1.0       0.6817604369767694  0.8570008356490846  0.27350420670709585          1.0000   
         H         H         1.0       0.6812635144866316  0.8920700690946962  0.24047528595256895          1.0000   
         H         H         1.0       0.7339789465659013  0.8479175249589312  0.18534867652471365          1.0000   
         H         H         1.0       0.7249478933519594  0.8100472964718848  0.21326560442732984          1.0000   
         C         C         1.0       0.7596374968576131  0.9045157419074671  0.20198732440379047          1.0000   
         C         C         1.0       0.7391441214622474  0.9092254758989087  0.1815390319294335 1.0000   
         C         C         1.0       0.7449285762113697  0.9269469747058228  0.158779889573349  1.0000   
         C         C         1.0       0.7689128356141455  0.9399455271688995  0.1577290778426282 1.0000   
         C         C         1.0       0.787889027687642   0.9342222177723296  0.1777852512243616 1.0000   
         C         C         1.0       0.7822843197662777  0.9182088642404252  0.20104275164117766          1.0000   
         C         C         1.0       0.7098506709899197  0.9003167502532435  0.18625826314369034          1.0000   
         C         C         1.0       0.6962559413002135  0.9266080817526094  0.1982960470681798 1.0000   
         C         C         1.0       0.6759837014341639  0.9390154641637019  0.18131360868945043          1.0000   
         C         C         1.0       0.6658982988905815  0.9627572386924059  0.19090303397838024          1.0000   
         C         C         1.0       0.6758615426512031  0.974829553010154   0.21667994013191172          1.0000   
         C         C         1.0       0.6968727726935033  0.9641473109755431  0.23154233466281737          1.0000   
         C         C         1.0       0.7064620116147292  0.9385707310966842  0.22388631281052268          1.0000   
         C         C         1.0       0.7122291227653225  0.8773296395909868  0.1337455127189047 1.0000   
         C         C         1.0       0.7008650773187682  0.8627873622319756  0.1111356075262566 1.0000   
         C         C         1.0       0.6747077612062639  0.8544678942035511  0.11251224387470482          1.0000   
         C         C         1.0       0.658920501924269   0.865453971568635   0.1348372159232232 1.0000   
         C         C         1.0       0.6709863104395914  0.8801847841606577  0.15730221647322085          1.0000   
         C         C         1.0       0.6976099801796635  0.8856076154184445  0.1581617139673359 1.0000   
         C         C         1.0       0.6605920816850355  0.8386384761961535  0.08512355917962447          1.0000   
         C         C         1.0       0.6351904675204273  0.9061312188800926  0.030017310184969042         1.0000   
         C         C         1.0       0.6609960654866502  0.8956943359330679  0.028000901301494286         1.0000   
         C         C         1.0       0.6683252867617064  0.8739798963731251  0.045282612894949885         1.0000   
         C         C         1.0       0.6507834153075497  0.8636001571982783  0.06581365548728406          1.0000   
         C         C         1.0       0.6264752338175803  0.8764361081149129  0.06762253579752714          1.0000   
         C         C         1.0       0.6185193188532253  0.8980456921439107  0.051125065788763774         1.0000   
         C         C         1.0       0.6364748838832389  0.8186799988848286  0.09213201995109635          1.0000   
         C         C         1.0       0.6342267711756552  0.8057112666094423  0.11921571472978662          1.0000   
         C         C         1.0       0.6148694001817963  0.787879100941798   0.12335861475933511          1.0000   
         C         C         1.0       0.5985433849861664  0.7791435927601316  0.10087747871653437          1.0000   
         C         C         1.0       0.599123195953788   0.792781488335855   0.07442769289967688          1.0000   
         C         C         1.0       0.61691464270162    0.8131112856681388  0.07079867160753057          1.0000   
         C         C         1.0       0.6762134304717159  0.8098194314104182  0.042639031260277  1.0000   
         C         C         1.0       0.6933720761636284  0.7907342404406202  0.030522488905100335         1.0000   
         C         C         1.0       0.7106842851658269  0.7762452591997324  0.04886617987859902          1.0000   
         C         C         1.0       0.7112728360855857  0.7825480064304371  0.07802436601837169          1.0000   
         C         C         1.0       0.6959464524590381  0.8026344002072249  0.08995857578108472          1.0000   
         C         C         1.0       0.6786062376827745  0.8162952234562632  0.07266528637817651          1.0000   
         H         H         1.0       0.7574375412064133  0.8918289181133482  0.2220365368415535 1.0000   
         H         H         1.0       0.7289446730610877  0.9305588648310466  0.14205182784393944          1.0000   
         H         H         1.0       0.7711214919951904  0.9550903426116881  0.14029466940629956          1.0000   
         H         H         1.0       0.7960699299310323  0.9127643468149356  0.21721291943728407          1.0000   
         H         H         1.0       0.6682078630963637  0.9322393804552386  0.1608358181050958 1.0000   
         H         H         1.0       0.6500561494541095  0.9724621987682703  0.1803867516795846 1.0000   
         H         H         1.0       0.7068359848886148  0.9743182428188554  0.24799949636615162          1.0000   
         H         H         1.0       0.7219370933527096  0.9305909288371232  0.23706169100366772          1.0000   
         H         H         1.0       0.7320280802662033  0.8828536911797827  0.12801272128014363          1.0000   
         H         H         1.0       0.7112373045943511  0.8574268134665576  0.0912612755284865 1.0000   
         H         H         1.0       0.6379713331713346  0.8625039632929558  0.13654985414056198          1.0000   
         H         H         1.0       0.6584793703972107  0.8862341599672906  0.17611654052319833          1.0000   
         H         H         1.0       0.6746504875298491  0.9041692695540077  0.012645250318582584         1.0000   
         H         H         1.0       0.6871072527705612  0.8642146608405653  0.04529043304010749          1.0000   
         H         H         1.0       0.612824097591428   0.8700678173969907  0.08382100624853174          1.0000   
         H         H         1.0       0.5993102723640974  0.9077337320745033  0.05370897375451628          1.0000   
         H         H         1.0       0.6490246859987759  0.8098825840067322  0.1359379159151347 1.0000   
         H         H         1.0       0.6143941911105233  0.7780177222516119  0.14472436442639308          1.0000   
         H         H         1.0       0.5845453711725159  0.7874370190815234  0.05546351815160786          1.0000   
         H         H         1.0       0.6170524106755141  0.822255535186861   0.04902049868627885          1.0000   
         H         H         1.0       0.6619363064972145  0.8174821570575302  0.02771920337649993          1.0000   
         H         H         1.0       0.6921317278799434  0.784608800774547   0.006735724527163709         1.0000   
         H         H         1.0       0.7270439446615338  0.7749753781575118  0.09195540513069239          1.0000   
         H         H         1.0       0.7006991943363374  0.8100649227815355  0.11311358828491054          1.0000   
         C         C         1.0       0.8129542067133805  0.9516218695971816  0.18018563992817532          1.0000   
         C         C         1.0       0.8143280638405261  0.9706291625780361  0.20729373783455907          1.0000   
         H         H         1.0       0.8316577953823685  0.9413277109590047  0.17923587396187296          1.0000   
         H         H         1.0       0.8138047436459456  0.9642590322452623  0.1607654354383648 1.0000   
         H         H         1.0       0.7942551090331731  0.9764885326198913  0.21211555472501176          1.0000   
         H         H         1.0       0.8229389504775592  0.989622476173858   0.2013381089989052 1.0000   
         C         C         1.0       0.8070887466131551  0.5716028336637692  0.4821022994530849 1.0000   
         C         C         1.0       0.7888067797417784  0.5483927688310951  0.4860459518507216 1.0000   
         H         H         1.0       0.8055845424530181  0.5804234182432639  0.4595174466499642 1.0000   
         H         H         1.0       0.8280045816801777  0.5645053285679726  0.4810674221566938 1.0000   
         H         H         1.0       0.768493434752712   0.5529654438549793  0.4789104880542294 1.0000   
         H         H         1.0       0.7866927213619666  0.5439591378632553  0.5095543086172077 1.0000   
         C         C         1.0       0.6450406579411571  0.9548281324106928  0.015045854261170713         1.0000   
         C         C         1.0       0.6294156833899036  0.9299088570370456  0.009662587204721193         1.0000   
         H         H         1.0       0.6668232256896696  0.952092807720949   0.007854963003553594         1.0000   
         H         H         1.0       0.644826857683803   0.9594105980536772  0.03940470549701962          1.0000   
         H         H         1.0       0.6324092929943134  0.9241613693440143  0.9863524030861885 1.0000   
         H         H         1.0       0.6086182198971575  0.9356965292182339  0.00791863806710248          1.0000   
         C         C         1.0       0.6651151027194845  0.5747250454974369  0.7307451211834955 1.0000   
         C         C         1.0       0.6667606530192218  0.5577550277019082  0.7610767547906482 1.0000   
         H         H         1.0       0.6547550100842092  0.594452082852581   0.733954055733626  1.0000   
         H         H         1.0       0.6524686831268893  0.5634501989456469  0.7143260430554901 1.0000   
         H         H         1.0       0.6792559449241802  0.5661508373880058  0.7777456760969343 1.0000   
         H         H         1.0       0.6754292448495188  0.5373412845257001  0.7533964529680262 1.0000   
         C         C         1.0       0.7558537850531778  0.7688395234663398  0.02866997341837327          1.0000   
         C         C         1.0       0.7298456275783288  0.7552005705822499  0.03664892010504191          1.0000   
         H         H         1.0       0.7519771272966529  0.7840332845193623  0.01127353008301975          1.0000   
         H         H         1.0       0.7645053155237103  0.781305572971643   0.04571545981634338          1.0000   
         H         H         1.0       0.7192479980705488  0.7457050712740404  0.01623333294599157          1.0000   
         H         H         1.0       0.7308438086793133  0.7393132899072189  0.05384873712129968          1.0000   
         C         C         1.0       0.8170675048228901  0.6996805045867794  0.7210517976285815 1.0000   
         C         C         1.0       0.8127669160175681  0.7140743414895594  0.7504783738676953 1.0000   
         H         H         1.0       0.8389516083671292  0.6963758923876405  0.7201573258033203 1.0000   
         H         H         1.0       0.8134158946306437  0.7127799940822425  0.7008995619649463 1.0000   
         H         H         1.0       0.7907227536034408  0.7162378445579465  0.7532979246030108 1.0000   
         H         H         1.0       0.8185187929430774  0.7351607538769802  0.7478012115862406 1.0000   
         C         C         1.0       0.7069809010015474  0.6143445981299167  0.9744426612661592 1.0000   
         C         C         1.0       0.7352624734906308  0.6036354197354726  0.9717839363425175 1.0000   
         H         H         1.0       0.704083034665953   0.6294042804135401  0.9569484529678738 1.0000   
         H         H         1.0       0.7030321409930326  0.6277859623958387  0.9933968331509863 1.0000   
         H         H         1.0       0.7368151814641455  0.5931526426857783  0.9498362199914987 1.0000   
         H         H         1.0       0.7340308378434266  0.5880865374917508  0.9884207930315977 1.0000   
         C         C         1.0       0.970528228573545   0.628089179870599   0.8706764532517547 1.0000   
         C         C         1.0       0.9912693007236177  0.6357757741640635  0.847944783537202  1.0000   
         H         H         1.0       0.9784030131580064  0.6249659144808288  0.8921563472054324 1.0000   
         H         H         1.0       0.9630740442449746  0.607118410232322   0.8646239229390019 1.0000   
         H         H         1.0       0.9995456024913039  0.6540243847771137  0.8579333599685026 1.0000   
         H         H         1.0       0.9822643896266879  0.6419619655893799  0.8267707832730679 1.0000   
         C         C         1.0       0.5007980272249253  0.5063783981342341  0.27768733487399566          1.0000   
         C         C         1.0       0.982919001817531   0.5384129685975304  0.2954669719733164 1.0000   
         H         H         1.0       0.9778286394874683  0.013239662260143614         0.23656589223008218          1.0000   
         H         H         1.0       0.5169754448782645  0.9823070615160966  0.2787864190172166 1.0000   
         H         H         1.0       0.9760674951852227  0.5562433754931445  0.28480649945664127          1.0000   
         H         H         1.0       0.9896803444553773  0.5456470612130735  0.31633447270772075          1.0000   
         C         C         1.0       0.9212158051253386  0.6729920490095463  0.07207368347256934          1.0000   
         C         C         1.0       0.9216506157886738  0.6619510881507681  0.03883804093942672          1.0000   
         H         H         1.0       0.9141212096811994  0.6944912915263747  0.0769289623297339 1.0000   
         H         H         1.0       0.9071658160948203  0.6615701720849103  0.08681550199703118          1.0000   
         H         H         1.0       0.9280878521226358  0.6415262698470597  0.037774384314190675         1.0000   
         H         H         1.0       0.9376328669662194  0.6722043017354278  0.025073703399740997         1.0000   
         C         C         1.0       0.588407594449043   0.7342450965957903  0.12643018756622076          1.0000   
         C         C         1.0       0.5782209588931931  0.7583602404151938  0.10915675580088131          1.0000   
         H         H         1.0       0.5917273936683208  0.7405029918416419  0.1488508247259417 1.0000   
         H         H         1.0       0.6082605138338408  0.7267429882377104  0.11797401318505168          1.0000   
         H         H         1.0       0.567707339004974   0.7523770886572758  0.08858470483841269          1.0000   
         H         H         1.0       0.5627670028722992  0.7670028812543864  0.1225060016934212 1.0000   
         C         C         1.0       0.6627778629839246  0.99962037221894    0.22810821412819549          1.0000   
         C         C         1.0       0.6548323703005331  0.5178679307398106  0.21173429875743152          1.0000   
         H         H         1.0       0.6411931821597819  0.9942384684654189  0.22778950858407354          1.0000   
         H         H         1.0       0.6466157446531205  0.49802200009537173           0.25466378117076494          1.0000   
         H         H         1.0       0.6555234068575687  0.511962281806346   0.18837223142294268          1.0000   
         H         H         1.0       0.6758098054609641  0.522938216976926   0.21933290065389896          1.0000   
         C         C         1.0       0.5116907240921358  0.5630954592857125  0.9909414298367127 1.0000   
         C         C         1.0       0.49939183665568143           0.5908472554441443 0.002117925987925595         1.0000   
         H         H         1.0       0.008764760355163936          0.5533645836391854 0.981801131773758  1.0000   
         H         H         1.0       0.02651684623395334           0.55333078360686   0.01849870716411232          1.0000   
         H         H         1.0       0.9927656958067241  0.5908490302339959  0.0009400723607202455        1.0000   
         H         H         1.0       0.5030732109583336  0.6040371364778366  0.9833175312253607 1.0000   
         C         C         1.0       0.7230427006107136  0.74793399553002    0.5240382011946274 1.0000   
         C         C         1.0       0.6999251821311233  0.7395683427337494  0.5039975261467253 1.0000   
         H         H         1.0       0.7153764399412481  0.7593657934337975  0.5431136406582499 1.0000   
         H         H         1.0       0.7342090357931159  0.7618023850073617  0.5108344956342961 1.0000   
         H         H         1.0       0.6878622710647619  0.7265929965876501  0.5185539690891048 1.0000   
         H         H         1.0       0.7081820152832873  0.7261471370761985  0.4866491846491351 1.0000   
         C         C         1.0       0.5338415068114224  0.6963771568608531  0.30053870589347176          1.0000   
         C         C         1.0       0.5610814023361098  0.6818408505128335  0.3042738372757097 1.0000   
         H         H         1.0       0.517803591737974   0.6868795923851915  0.3130127378748691 1.0000   
         H         H         1.0       0.5268085841090719  0.6951160417304549  0.2772673241528572 1.0000   
         H         H         1.0       0.5663111661929247  0.6757644290373205  0.32775962169307343          1.0000   
         H         H         1.0       0.5771227175115522  0.6949910985109136  0.2996165930316636 1.0000   
         C         C         1.0       0.000897043110448914          0.8873235716720007 0.3219571437065846 1.0000   
         C         C         1.0       0.9746993799038316  0.8742268133406312  0.3126567009472656 1.0000   
         H         H         1.0       0.4973412763906381  0.8962741517428128  0.2960410792070582 1.0000   
         H         H         1.0       0.9977802142436556  0.8998887713119333  0.3418098350088322 1.0000   
         H         H         1.0       0.9683119995096532  0.8607126565182961  0.32904112448495926          1.0000   
         H         H         1.0       0.9766789361654461  0.8629485779927125  0.29119356344263525          1.0000   
         C         C         1.0       0.7202556141458758  0.8954207995499118  0.44368039621167416          1.0000   
         C         C         1.0       0.7462609715497324  0.8777907161553549  0.44104949611814215          1.0000   
         H         H         1.0       0.7188120984579672  0.9104271827847005  0.42449541233276405          1.0000   
         H         H         1.0       0.723243717962473   0.9077392102509316  0.4648274436522611 1.0000   
         H         H         1.0       0.7432620548458754  0.8656236873793336  0.41952399585030603          1.0000   
         H         H         1.0       0.7471416801976392  0.8635687379831568  0.459829978486492  1.0000   
         C         C         1.0       0.6904209756632288  0.8069720675174978  0.26030975544465923          1.0000   
         C         C         1.0       0.6649847718789033  0.7938785970830833  0.2490368506610711 1.0000   
         H         H         1.0       0.7059363226654956  0.7914694247002775  0.25780909913249556          1.0000   
         H         H         1.0       0.6898233598689353  0.8096336674852541  0.28464061977501687          1.0000   
         H         H         1.0       0.6690524029530407  0.7728621160543293  0.24210484040123548          1.0000   
         H         H         1.0       0.6570907936494048  0.8022528342022939  0.22842213861086472          1.0000   
         C         C         1.0       0.9887129901099767  0.9746879228632229  0.7754060945953748 1.0000   
         C         C         1.0       0.9759947129493142  0.0009174981701141061        0.7865924703968196 1.0000   
         H         H         1.0       0.511309700032458   0.9489822938723378  0.7843616190310824 1.0000   
         H         H         1.0       0.5121664704482306  0.9703994717099641  0.7533246226883182 1.0000   
         H         H         1.0       0.9660853798228972  0.011121165427255164         0.7682304692467592 1.0000   
         H         H         1.0       0.9608284182774124  0.998395424034266   0.8050719397303873 1.0000   
         C         C         1.0       0.9461585572508346  0.9287029377794122  0.5121525545967994 1.0000   
         C         C         1.0       0.9418008934242094  0.9246983002429011  0.4793836819807989 1.0000   
         H         H         1.0       0.9373599205158477  0.948169055674308   0.5167857608066054 1.0000   
         H         H         1.0       0.9672936868613687  0.9299992526405603  0.5181023171888761 1.0000   
         H         H         1.0       0.9485456486224852  0.9046952065404528  0.4735566097204995 1.0000   
         H         H         1.0       0.9557617545874112  0.9378407599268708  0.46847703500688254          1.0000   
         C         C         1.0       0.8211723475904272  0.49965632141544647           0.7114097282420975 1.0000   
         C         C         1.0       0.8240619077110948  0.9884681759162207  0.7243390952078146 1.0000   
         H         H         1.0       0.8112758500919229  0.4865058472794178  0.7280928678996962 1.0000   
         H         H         1.0       0.8201685984799644  0.48740849988162804           0.6912510058693806 1.0000   
         H         H         1.0       0.8118385834492914  0.9832414976283234  0.7059487223179821 1.0000   
         H         H         1.0       0.810343386505897   0.9874549157915934  0.7434897818145627 1.0000   
         C         C         1.0       0.8541766479757522  0.7639357722002802  0.6061385730229776 1.0000   
         C         C         1.0       0.8679035299064369  0.7360934165714406  0.6064644027968621 1.0000   
         H         H         1.0       0.8395515707429524  0.7682881791260381  0.6232735480295004 1.0000   
         H         H         1.0       0.841631975044409   0.7652712933803584  0.5849720473552917 1.0000   
         H         H         1.0       0.8750824073982025  0.734041966774181   0.6283148256632521 1.0000   
         H         H         1.0       0.8841815992518006  0.73387951550101    0.5920083914192763 1.0000   
         C         C         1.0       0.5528411307729252  0.8322327741180977  0.5564490985411599 1.0000   
         C         C         1.0       0.5432786428616934  0.8387532465516281  0.5242806259050824 1.0000   
         H         H         1.0       0.5652746848305529  0.8478248698124626  0.5663351479172892 1.0000   
         H         H         1.0       0.566633454801093   0.815270695011907   0.5571454125996594 1.0000   
         H         H         1.0       0.5376430032558911  0.8599173555339329  0.524294509472875  1.0000   
         H         H         1.0       0.5244790829358481  0.8285534098954375  0.5198747216316407 1.0000   
         C         C         1.0       0.9056585359495951  0.803444770008405   0.8235700056458685 1.0000   
         C         C         1.0       0.8967085378384544  0.8041107825039531  0.7906768897017982 1.0000   
         H         H         1.0       0.8973195082868426  0.8206812695975587  0.8368868523368933 1.0000   
         H         H         1.0       0.9282787914516281  0.808202895684664   0.8241142760223007 1.0000   
         H         H         1.0       0.8774730757471115  0.7954992394743975  0.7883469959176977 1.0000   
         H         H         1.0       0.909934162746325   0.7916003406275357  0.7764115099332664 1.0000

