data_0
_chemical_formula_structural 
                                        C6H4C38H24C6H4C38H24C6H4C38H24C6H4C38H24C6H4C38H24C6H4C38H24C6H4C38H24C6H4C38H24C6H4C38H24C6H4C38H24C6H4C38H24C6H4C38H24C6H4C38H24C6H4C38H24C6H4C38H24C6H4C38H24C6H4C38H24C6H4C38H24C6H4C38H24C6H4C38H24C6H4C38H24C6H4C38H24C6H4C38H24C6H4C38H24C6H4C38H24C6H4C38H24C6H4C38H24C6H4C38H24C6H4C38H24C6H4C38H24C6H4C38H24C6H4C38H24C6H4C38H24C6H4C38H24C6H4C38H24C6H4C38H24C6H4C38H24C6H4C38H24C6H4C38H24C6H4C38H24C6H4C38H24C6H4C38H24C6H4C38H24C6H4C38H24C6H4C38H24C6H4C38H24C6H4C38H24C6H4C38H24C6H4C38H24C6H4C38H24C6H4C38H24C6H4C38H24C6H4C38H24C6H4C38H24C6H4C38H24C6H4C38H24C6H4C38H24C6H4C38H24C6H4C38H24C6H4C38H24C6H4C38H24C6H4C38H24C6H4C38H24C6H4C38H24C2H4C2H4C2H4C2H4C2H4C2H4C2H4C2H4C2H4C2H4C2H4C2H4C2H4C2H4C2H4C2H4C2H4C2H4C2H4C2H4C2H4C2H4C2H4C2H4C2H4C2H4C2H4C2H4C2H4C2H4C2H4C2H4C2H4C2H4C2H4C2H4C2H4C2H4C2H4C2H4C2H4C2H4C2H4C2H4C2H4C2H4C2H4C2H4C2H4C2H4C2H4C2H4C2H4C2H4C2H4C2H4C2H4C2H4C2H4C2H4C2H4C2H4C2H4C2H4C2H4C2H4C2H4C2H4C2H4C2H4C2H4C2H4C2H4C2H4C2H4C2H4C2H4C2H4C2H4C2H4C2H4C2H4C2H4C2H4C2H4C2H4C2H4C2H4C2H4C2H4C2H4C2H4C2H4C2H4C2H4C2H4C2H4C2H4C2H4C2H4C2H4C2H4C2H4C2H4C2H4C2H4C2H4C2H4C2H4C2H4C2H4C2H4C2H4C2H4C2H4C2H4C2H4C2H4C2H4C2H4C2H4C2H4C2H4C2H4C2H4C2H4C2H4C2H4C2H4C2H4C2H4C2H4C2H4C2H4C2H4C2H4C2H4C2H4C2H4C2H4C2H4C2H4C2H4C2H4C2H4C2H4C2H4C2H4C2H4C2H4C2H4C2H4C2H4C2H4C2H4C2H4C2H4C2H4C2H4C2H4C2H4C2H4C2H4C2H4C2H4C2H4C2H4C2H4C2H4C2H4C2H4C2H4C2H4C2H4C2H4C2H4C2H4C2H4C2H4C2H4C2H4C2H4C2H4C2H4C2H4C2H4C2H4C2H4C2H4C2H4C2H4C2H4
_chemical_formula_sum                   'C3200 H2560'
_cell_length_a                          77.46545092992753
_cell_length_b                          77.89852647338017
_cell_length_c                          23.184180021100552
_cell_angle_alpha                       90.0763835896686
_cell_angle_beta                        89.97466564267431
_cell_angle_gamma                       90.16632545933592
_space_group_name_H-M_alt               'P 1'
_space_group_IT_number                  1
loop_
  _space_group_symop_operation_xyz
         'x, y, z' 
loop_
  _atom_site_type_symbol
  _atom_site_label
  _atom_site_symmetry_multiplicity
  _atom_site_fract_x
  _atom_site_fract_y
  _atom_site_fract_z
  _atom_site_occupancy
         C         C         1.0       0.7732659872451878  0.3824203056550509  0.5516200537914586 1.0000   
         C         C         1.0       0.7607861547861915  0.3801085441625875  0.5104052116655265 1.0000   
         C         C         1.0       0.7651557731188057  0.3724532837370532  0.45714728265151144          1.0000   
         C         C         1.0       0.782125312464506   0.3701130941699778  0.44261135739214696          1.0000   
         C         C         1.0       0.7942821692301333  0.3726262169377041  0.4841437441390016 1.0000   
         C         C         1.0       0.7900428533166036  0.377595894697148   0.537938718444271  1.0000   
         H         H         1.0       0.7476072484138673  0.38216475298807073           0.5187798333441331 1.0000   
         H         H         1.0       0.7556695857916325  0.368933743341988   0.42729342188844555          1.0000   
         H         H         1.0       0.8076140652074136  0.3688620957784188  0.47229565702894755          1.0000   
         H         H         1.0       0.799670596534053   0.38008748558099903           0.5720140181711272 1.0000   
         C         C         1.0       0.8089570300525705  0.3881706342554061  0.3690440359771336 1.0000   
         C         C         1.0       0.8021279879543345  0.3727918039257387  0.3468367131103091 1.0000   
         C         C         1.0       0.8109362589459025  0.36572924555722164           0.30186888011230306          1.0000   
         C         C         1.0       0.8257031825102791  0.37244542570546063           0.28151392361751265          1.0000   
         C         C         1.0       0.8327225646264339  0.3876110491401115  0.3055442769026257 1.0000   
         C         C         1.0       0.8241350097993735  0.39528979681570897           0.34984208247144744          1.0000   
         C         C         1.0       0.7869749545186906  0.3638141432337307  0.3775273306713483 1.0000   
         C         C         1.0       0.7724626638972656  0.36740475239506387           0.33175677587235874          1.0000   
         C         C         1.0       0.7697300818334589  0.35593406904998287           0.28713689886649074          1.0000   
         C         C         1.0       0.7599669666550904  0.3610268430597439  0.24035447378136354          1.0000   
         C         C         1.0       0.7514219541245176  0.3765171482412799  0.24025848229536204          1.0000   
         C         C         1.0       0.7553409103028857  0.38822720487064594           0.28446412047795683          1.0000   
         C         C         1.0       0.7662440678190697  0.38393462973750986           0.3295934539868208 1.0000   
         C         C         1.0       0.808882223042956   0.33991280975381594           0.4030913657146404 1.0000   
         C         C         1.0       0.8142370224310234  0.3232787873029944  0.4047729213310154 1.0000   
         C         C         1.0       0.8034254612259848  0.309960395071252   0.39084927384129325          1.0000   
         C         C         1.0       0.7865361299496005  0.3139843669653306  0.3803858592473534 1.0000   
         C         C         1.0       0.7808826064523381  0.3305018725691635  0.38215952198906705          1.0000   
         C         C         1.0       0.7921785939851268  0.3447809599075945  0.3860769140036822 1.0000   
         C         C         1.0       0.8094759271950468  0.2904078779136573  0.3849741689988612 1.0000   
         C         C         1.0       0.8658738899979208  0.291519166848871   0.35742991840598703          1.0000   
         C         C         1.0       0.8580117047217177  0.2781513854343345  0.3876579888955091 1.0000   
         C         C         1.0       0.8403942830057647  0.2768207101455641  0.3960860303388123 1.0000   
         C         C         1.0       0.829726126809814   0.28964400653398387           0.37064053761317056          1.0000   
         C         C         1.0       0.8369751368854678  0.3011694688875088  0.3302957764165068 1.0000   
         C         C         1.0       0.8552152312232646  0.30225428510122077           0.32437788907247717          1.0000   
         C         C         1.0       0.8012680956914877  0.2801257124039436  0.3370732663260382 1.0000   
         C         C         1.0       0.7978117828176778  0.2878483255424395  0.28406531266159724          1.0000   
         C         C         1.0       0.7898540492084741  0.2789469072112191  0.24019173434781824          1.0000   
         C         C         1.0       0.7845820238579997  0.26246310492066893           0.24623878615189806          1.0000   
         C         C         1.0       0.7892889153927871  0.2535413548190327  0.2963398753950242 1.0000   
         C         C         1.0       0.7970404026413634  0.26269291536985423           0.3416132421267044 1.0000   
         C         C         1.0       0.7863188887801354  0.28102140642260054           0.4596668764050739 1.0000   
         C         C         1.0       0.7809673288126372  0.2775586895228828  0.5147494359159543 1.0000   
         C         C         1.0       0.7913993663623534  0.28079678351256715           0.5599858414883105 1.0000   
         C         C         1.0       0.8081935889687784  0.2856514261793611  0.5504585132819438 1.0000   
         C         C         1.0       0.814339471158477   0.2873521490659269  0.4968420821430224 1.0000   
         C         C         1.0       0.8036074781414781  0.2860161038675447  0.4495297076218101 1.0000   
         H         H         1.0       0.8014291652488561  0.3939020485057889  0.40510096316778216          1.0000   
         H         H         1.0       0.8065833423396138  0.3535856524604558  0.28138307824627   1.0000   
         H         H         1.0       0.8314196069737547  0.3654916545472707  0.24474195784984387          1.0000   
         H         H         1.0       0.8281971135290647  0.4065813584705034  0.3695827611703265 1.0000   
         H         H         1.0       0.7756895186953398  0.3437197196672976  0.27937031493014924          1.0000   
         H         H         1.0       0.7582691882606071  0.3513314261654021  0.20740788125155327          1.0000   
         H         H         1.0       0.7498588869435587  0.401278170860299   0.28022317738006886          1.0000   
         H         H         1.0       0.7693274785050668  0.3943747852238646  0.35802080341211057          1.0000   
         H         H         1.0       0.8180169279886201  0.3496108097337565  0.40745664513678903          1.0000   
         H         H         1.0       0.826832533768593   0.32041555372777725           0.42251405655155333          1.0000   
         H         H         1.0       0.777484613734725   0.3037726891993436  0.3684513865959212 1.0000   
         H         H         1.0       0.7670829721726411  0.33094867090179486           0.38168915497277395          1.0000   
         H         H         1.0       0.8644067773702492  0.2679024971173034  0.41051377870487926          1.0000   
         H         H         1.0       0.8354085086151665  0.26590109177149607           0.4230537565321298 1.0000   
         H         H         1.0       0.8295599099927082  0.3089422215740239  0.30160794184755685          1.0000   
         H         H         1.0       0.8596035362000984  0.3117952056536841  0.291863174071975  1.0000   
         H         H         1.0       0.800619559814211   0.3009512477850703  0.28193571710257953          1.0000   
         H         H         1.0       0.7875808811054156  0.28606693135032984           0.20083090471700366          1.0000   
         H         H         1.0       0.787379372280326   0.2402351932502091  0.299193847985018  1.0000   
         H         H         1.0       0.8013717641397199  0.25502668961729996           0.3768257704794212 1.0000   
         H         H         1.0       0.7768668825411372  0.280978404596032   0.4272744438762816 1.0000   
         H         H         1.0       0.7680564254216341  0.2738069084843651  0.5200671302915736 1.0000   
         H         H         1.0       0.8158344780345539  0.29063737834987663           0.5866996026428997 1.0000   
         H         H         1.0       0.8272543212539967  0.2925757114102     0.49467478562045464          1.0000   
         C         C         1.0       0.7436436521583649  0.38982421563074965           0.8095521926807776 1.0000   
         C         C         1.0       0.7411795851709492  0.3764748143066206  0.7716032070079156 1.0000   
         C         C         1.0       0.7534367609576103  0.36349855764486017           0.7664852780043531 1.0000   
         C         C         1.0       0.7696753231299697  0.36590462074667424           0.7904575459512775 1.0000   
         C         C         1.0       0.772618433545629   0.38083139098905866           0.8206075994842583 1.0000   
         C         C         1.0       0.7600404896093996  0.3921431664790866  0.83168587103121   1.0000   
         H         H         1.0       0.7284415945443623  0.3748317445696539  0.7573736651900721 1.0000   
         H         H         1.0       0.7492186932821605  0.3520482656067653  0.7449865230804328 1.0000   
         H         H         1.0       0.7849975837793502  0.3834322421046338  0.8413181638193024 1.0000   
         H         H         1.0       0.7625617800200654  0.40282708349768587           0.8614733349841522 1.0000   
         C         C         1.0       0.8070420483574611  0.3728210421060283  0.7421522261461624 1.0000   
         C         C         1.0       0.8033090705967185  0.3573138713915101  0.7690330304840357 1.0000   
         C         C         1.0       0.8158866502691937  0.3454162316185888  0.7683517825590235 1.0000   
         C         C         1.0       0.8326728963278243  0.34893038679936417           0.7517159156248558 1.0000   
         C         C         1.0       0.8368611555608765  0.36519454638279764           0.7329967459309106 1.0000   
         C         C         1.0       0.8236117813954515  0.3774429944184454  0.7300250477594753 1.0000   
         C         C         1.0       0.7844843965529531  0.35144582800625884           0.7917534886089937 1.0000   
         C         C         1.0       0.7789447411409887  0.3356222455695636  0.7501756767731546 1.0000   
         C         C         1.0       0.7783643432085335  0.31844755570938255           0.7659052318761381 1.0000   
         C         C         1.0       0.7767277340567382  0.3058700534961439  0.7292820371959529 1.0000   
         C         C         1.0       0.7755510824332968  0.30932794388688983           0.6719958908345139 1.0000   
         C         C         1.0       0.7772025989684876  0.3258689073632499  0.6524405735705907 1.0000   
         C         C         1.0       0.7781735428802754  0.33882641523448787           0.6913895668237879 1.0000   
         C         C         1.0       0.7972458582225815  0.350569084124609   0.8976876623994294 1.0000   
         C         C         1.0       0.7970673107777269  0.34422904979352575           0.9527815989088382 1.0000   
         C         C         1.0       0.7835016969646827  0.3342903293083454  0.9714660342981414 1.0000   
         C         C         1.0       0.7693902842106555  0.3325114182751985  0.9347448396388653 1.0000   
         C         C         1.0       0.7695108838590243  0.34008062437809744           0.8796576774566662 1.0000   
         C         C         1.0       0.7849856008939271  0.34629109217319604           0.8572444137422742 1.0000   
         C         C         1.0       0.7811791203950121  0.3262973927399958  0.034512059103480874         1.0000   
         C         C         1.0       0.8277680872981323  0.3069749813406414  0.11744706349584377          1.0000   
         C         C         1.0       0.8143617374380994  0.3126059318622538  0.15179282694443774          1.0000   
         C         C         1.0       0.8003418062547618  0.319838509595822   0.12429356522906043          1.0000   
         C         C         1.0       0.7985365618938992  0.3213743648548813  0.06339751078195222          1.0000   
         C         C         1.0       0.8119987956762188  0.31334369526032163           0.033754955390799646         1.0000   
         C         C         1.0       0.8263400397470462  0.306617966678229   0.05846049025326572          1.0000   
         C         C         1.0       0.7727914732807404  0.3075923915219803  0.033549637342327854         1.0000   
         C         C         1.0       0.7759209881807314  0.2958885337564851  0.9871519470542753 1.0000   
         C         C         1.0       0.768081901022981   0.2807871584105594  0.9863467124458197 1.0000   
         C         C         1.0       0.7570331844696538  0.2753495413804767  0.029070573815129785         1.0000   
         C         C         1.0       0.7542707688977967  0.28596326753802287           0.07483125231861742          1.0000   
         C         C         1.0       0.7627075393002956  0.3013647385218639  0.07774456833993648          1.0000   
         C         C         1.0       0.7515997655306231  0.3426175126413814  0.0615448275562438 1.0000   
         C         C         1.0       0.7434774661839477  0.35797732394409454           0.07850305263354374          1.0000   
         C         C         1.0       0.7537410966231205  0.3707277050635391  0.0992019638878765 1.0000   
         C         C         1.0       0.7716750398033383  0.3691976361883526  0.10423820810483053          1.0000   
         C         C         1.0       0.7797578305504251  0.35360237261594946           0.09211595554221996          1.0000   
         C         C         1.0       0.7699370762501335  0.3409065685132509  0.0638063622512457 1.0000   
         H         H         1.0       0.7962775004479079  0.3821172109834872  0.737508379875027  1.0000   
         H         H         1.0       0.8118607836044077  0.33199799770406263           0.7787331428903981 1.0000   
         H         H         1.0       0.8426263530774661  0.3390524575785301  0.7487579117356883 1.0000   
         H         H         1.0       0.8277382317910527  0.39003774458202684           0.7157587752956519 1.0000   
         H         H         1.0       0.77984106071086    0.31497262843965557           0.8099752121231305 1.0000   
         H         H         1.0       0.7751869368894927  0.29357937463394174           0.7424968841381645 1.0000   
         H         H         1.0       0.7777954283478273  0.32938025798958664           0.6076811347430597 1.0000   
         H         H         1.0       0.7789202319836968  0.35246095143657435           0.6754782470626423 1.0000   
         H         H         1.0       0.8090446969093493  0.3556699922546308  0.888256806315463  1.0000   
         H         H         1.0       0.8088690962051521  0.3471678931993891  0.9788038652811293 1.0000   
         H         H         1.0       0.7573106590580428  0.3265004056280582  0.9482632881200517 1.0000   
         H         H         1.0       0.7587344279854554  0.3379103704754868  0.8551778266088595 1.0000   
         H         H         1.0       0.8158278287017403  0.31248455646124046           0.19967620634276306          1.0000   
         H         H         1.0       0.7888930459201982  0.32311802072837215           0.14905579974840832          1.0000   
         H         H         1.0       0.8119026949857614  0.31460964363377425           0.9879852591373773 1.0000   
         H         H         1.0       0.8353315112821661  0.3001475555574351  0.03209049124590102          1.0000   
         H         H         1.0       0.7847991317769948  0.2984631481457044  0.9491455952134612 1.0000   
         H         H         1.0       0.7700367087961513  0.2725630366039303  0.951551715606488  1.0000   
         H         H         1.0       0.7463185707059138  0.28210408309833296           0.11082712667174577          1.0000   
         H         H         1.0       0.7584107527252264  0.30991164557414    0.11070798223050993          1.0000   
         H         H         1.0       0.7438863505857206  0.33245567443830243           0.04605588086573009          1.0000   
         H         H         1.0       0.7299156718978894  0.3587176346445738  0.0789263228681567 1.0000   
         H         H         1.0       0.7801300958145383  0.37937183070401415           0.11925805006199286          1.0000   
         H         H         1.0       0.793704251955542   0.35438152809739015           0.09686567303283278          1.0000   
         C         C         1.0       0.7221594279485043  0.456218706881424   0.31032160940847464          1.0000   
         C         C         1.0       0.7273124733289605  0.4406142926317948  0.33142567764630165          1.0000   
         C         C         1.0       0.7426189570209504  0.4398780717320537  0.36269873446389633          1.0000   
         C         C         1.0       0.752735110753949   0.454268360286628   0.36841834107770594          1.0000   
         C         C         1.0       0.7476140465360445  0.4691576510594358  0.34564914332140995          1.0000   
         C         C         1.0       0.7312207759868486  0.470527930551107   0.32008170224299254          1.0000   
         H         H         1.0       0.7196371694641229  0.42928633302793656           0.32289338704587683          1.0000   
         H         H         1.0       0.7472534905010458  0.42795859747241277           0.38152422266501795          1.0000   
         H         H         1.0       0.7562287560312052  0.4804958493394794  0.3488274636312776 1.0000   
         H         H         1.0       0.7275142712790383  0.4823273383401624  0.29877874946959293          1.0000   
         C         C         1.0       0.7892369429117206  0.46051464746150783           0.2983758772356808 1.0000   
         C         C         1.0       0.7825164555250639  0.44870506004879046           0.33708733316159256          1.0000   
         C         C         1.0       0.7837037052692211  0.43144827444921774           0.3190803455595032 1.0000   
         C         C         1.0       0.7894399519812907  0.42681678164857306           0.2649758981513553 1.0000   
         C         C         1.0       0.7914662280345405  0.4393142246743225  0.2231975947103102 1.0000   
         C         C         1.0       0.7935454983625653  0.4560958827929222  0.2434619104021115 1.0000   
         C         C         1.0       0.7719596451108768  0.45301038133496546           0.3962608916107012 1.0000   
         C         C         1.0       0.7739932566442045  0.43974081979262764           0.4511018757512857 1.0000   
         C         C         1.0       0.7895900676423587  0.43291427459638876           0.4663868914699042 1.0000   
         C         C         1.0       0.7920968828264819  0.4238005418101111  0.51638898268941   1.0000   
         C         C         1.0       0.7785448742993061  0.41947320100994934           0.5509030393318252 1.0000   
         C         C         1.0       0.7626439619870965  0.4258694343802887  0.535270153366384  1.0000   
         C         C         1.0       0.7602432994631539  0.4347294545681298  0.48533229943797546          1.0000   
         C         C         1.0       0.7931774759690322  0.4781989881521705  0.4221554668846003 1.0000   
         C         C         1.0       0.7948598073414276  0.49456606056689206           0.4415202125761788 1.0000   
         C         C         1.0       0.7823086848663374  0.501888954618658   0.47472743627234687          1.0000   
         C         C         1.0       0.7671759262442667  0.49332640754546575           0.48622362866872165          1.0000   
         C         C         1.0       0.7649061252936387  0.4769659290808597  0.4645385937933783 1.0000   
         C         C         1.0       0.777604266222401   0.4700151697427837  0.42980686483356245          1.0000   
         C         C         1.0       0.7833186231603987  0.5216082110288757  0.4960712674166879 1.0000   
         C         C         1.0       0.8356265313896984  0.5458358224956134  0.49965135235926816          1.0000   
         C         C         1.0       0.8316498952141086  0.530010449781148   0.5258896495580315 1.0000   
         C         C         1.0       0.8154065883851032  0.5229504389976004  0.5256389678205596 1.0000   
         C         C         1.0       0.8019669478854231  0.5305050607538652  0.4952007786350176 1.0000   
         C         C         1.0       0.8051651880390137  0.5467582560507559  0.47251244680051974          1.0000   
         C         C         1.0       0.8215987258671417  0.5544882963099128  0.476316066878902  1.0000   
         C         C         1.0       0.7770734403989012  0.5252296476845929  0.5625268023283442 1.0000   
         C         C         1.0       0.774628431700281   0.5419338047081395  0.5803351232430977 1.0000   
         C         C         1.0       0.7705492291258853  0.5461841366521862  0.6372934383702493 1.0000   
         C         C         1.0       0.7715442871500641  0.533261466661081   0.6787926045753656 1.0000   
         C         C         1.0       0.774212702119976   0.5163801896179308  0.6604087044861134 1.0000   
         C         C         1.0       0.77687757252189    0.5126640192175502  0.6040000947729031 1.0000   
         C         C         1.0       0.7511351552005138  0.5299056478578021  0.4599904035808864 1.0000   
         C         C         1.0       0.7401413264560858  0.5362791074407378  0.42006161521575786          1.0000   
         C         C         1.0       0.7450811680542354  0.5423571674399777  0.36830151676614553          1.0000   
         C         C         1.0       0.7619465017962477  0.5405690821052003  0.35301491979408495          1.0000   
         C         C         1.0       0.774141880468282   0.5333925200873691  0.39368845297157906          1.0000   
         C         C         1.0       0.7687720010929412  0.5289610635001893  0.44943327780388537          1.0000   
         H         H         1.0       0.7897072400340852  0.47439898317514095           0.30784236011135113          1.0000   
         H         H         1.0       0.7811901336088323  0.4214618887239046  0.34998946207110193          1.0000   
         H         H         1.0       0.7898365003342026  0.41318619176053833           0.2536618472075981 1.0000   
         H         H         1.0       0.7973188439114283  0.4658178717058611  0.21278598716547806          1.0000   
         H         H         1.0       0.8005222672217815  0.4366054784521085  0.4429660803007741 1.0000   
         H         H         1.0       0.8050883784715066  0.41981072019846055           0.5275318985391525 1.0000   
         H         H         1.0       0.7530536957645314  0.42315907752915055           0.564884286762845  1.0000   
         H         H         1.0       0.7467606821614932  0.4390046498191503  0.47780721811266624          1.0000   
         H         H         1.0       0.8034782751527159  0.47375691319384505           0.393188084763138  1.0000   
         H         H         1.0       0.8064737510381003  0.5015232302555732  0.4304237332917506 1.0000   
         H         H         1.0       0.7578715162268473  0.49993492685245755           0.5128575575096516 1.0000   
         H         H         1.0       0.7530839370154083  0.47147067635219087           0.4742260451808859 1.0000   
         H         H         1.0       0.8420716779825713  0.5219967431075201  0.5435802203259973 1.0000   
         H         H         1.0       0.8137765411416874  0.5096959601687113  0.5414184812997921 1.0000   
         H         H         1.0       0.7936436709705665  0.5532805101912202  0.45632975488184846          1.0000   
         H         H         1.0       0.8236814831740921  0.5673724264600303  0.4578650688424772 1.0000   
         H         H         1.0       0.7758427752685473  0.5527941256239708  0.5503779654104662 1.0000   
         H         H         1.0       0.770127270501458   0.5590426006549899  0.6512458222387946 1.0000   
         H         H         1.0       0.7739487751648486  0.5057538365167263  0.6864295025058853 1.0000   
         H         H         1.0       0.7797157390329523  0.4999579751153323  0.5891863405347433 1.0000   
         H         H         1.0       0.7460418944061729  0.5262944149999148  0.5002667382361156 1.0000   
         H         H         1.0       0.7264432129913384  0.5369107301502828  0.4344596193798359 1.0000   
         H         H         1.0       0.7672214467185626  0.5454957764574985  0.31131841300089463          1.0000   
         H         H         1.0       0.7880643890850202  0.5320850752631392  0.38043228892432995          1.0000   
         C         C         1.0       0.7822275148555151  0.5124000500834991  0.799242291585837  1.0000   
         C         C         1.0       0.767836836641851   0.5023496329874966  0.7976632220221341 1.0000   
         C         C         1.0       0.7681015609183971  0.48597915231881794           0.820190987074255  1.0000   
         C         C         1.0       0.7817107106169445  0.48031003789464394           0.8526760922725627 1.0000   
         C         C         1.0       0.7961317744802773  0.4906142489284324  0.8532449011979807 1.0000   
         C         C         1.0       0.7968960469627459  0.5060985938522791  0.8292830241307784 1.0000   
         H         H         1.0       0.7564170509222672  0.5072422904905406  0.7819814833794579 1.0000   
         H         H         1.0       0.7563166151475115  0.4789955050780855  0.817562501807273  1.0000   
         H         H         1.0       0.8052805998091945  0.48809534820527894           0.8856889959480091 1.0000   
         H         H         1.0       0.8078892716261044  0.5132154091568357  0.8394782995824694 1.0000   
         C         C         1.0       0.8083522979031647  0.4502529329230234  0.8533434870603263 1.0000   
         C         C         1.0       0.7965029650980899  0.4526929795594484  0.8979847622196688 1.0000   
         C         C         1.0       0.7955621167988257  0.4395066338818427  0.9390623326610873 1.0000   
         C         C         1.0       0.8086277116256098  0.4271158010828982  0.9418992316504281 1.0000   
         C         C         1.0       0.8198763666531617  0.42450638997551665           0.896685295193646  1.0000   
         C         C         1.0       0.8184980155102024  0.43540914251422613           0.8494753008876754 1.0000   
         C         C         1.0       0.7795227468562662  0.4644765697649894  0.89742615157648   1.0000   
         C         C         1.0       0.7652230849550348  0.4508781722735799  0.8756076040671206 1.0000   
         C         C         1.0       0.7536212570048334  0.4445629650790575  0.9150640713409713 1.0000   
         C         C         1.0       0.7403559037000784  0.43338298473413295           0.8982146088889926 1.0000   
         C         C         1.0       0.7374400457895596  0.429619315450343   0.8402995330956636 1.0000   
         C         C         1.0       0.7502582950390042  0.43499459990598055           0.8006627806726061 1.0000   
         C         C         1.0       0.7634027405934705  0.44538111757737    0.8197460394127531 1.0000   
         C         C         1.0       0.7878346065912274  0.47405926765591727           0.0047679064032453145        1.0000   
         C         C         1.0       0.7828465648674108  0.47988274640988476           0.05762235257968462          1.0000   
         C         C         1.0       0.7676441315882592  0.48929049074833075           0.06250668648659707          1.0000   
         C         C         1.0       0.7573300845524806  0.4898413706498688  0.014663160265053321         1.0000   
         C         C         1.0       0.7608067617137466  0.48200191732766495           0.9654324050178725 1.0000   
         C         C         1.0       0.7762546178848196  0.47330710635429174           0.9588314095092414 1.0000   
         C         C         1.0       0.7625360570984744  0.49929795565644036           0.12011764484377485          1.0000   
         C         C         1.0       0.8015221061751943  0.5127981298588644  0.24922710380730395          1.0000   
         C         C         1.0       0.7850347460604076  0.507798846254979   0.26432481266387375          1.0000   
         C         C         1.0       0.7734208943840034  0.5025492836674833  0.22448125785046735          1.0000   
         C         C         1.0       0.7776781582111878  0.5028314945743181  0.1673190787967489 1.0000   
         C         C         1.0       0.7937542737231597  0.5079972775840232  0.15174791469382098          1.0000   
         C         C         1.0       0.8059141289902636  0.5117796993728834  0.19238527995182286          1.0000   
         C         C         1.0       0.7481572149008504  0.48617978711854315           0.14008809509845377          1.0000   
         C         C         1.0       0.7311483000609246  0.4884570364047792  0.12930857339350266          1.0000   
         C         C         1.0       0.7188623164183904  0.47671597081747186           0.14790118383560746          1.0000   
         C         C         1.0       0.7232238676064675  0.4627389045539544  0.17864139866675388          1.0000   
         C         C         1.0       0.7405978347243376  0.45966064322261124           0.18857200296621857          1.0000   
         C         C         1.0       0.7524918619722881  0.47122122872913447           0.16793878677689822          1.0000   
         C         C         1.0       0.7445115023390583  0.5274958204973826  0.14296244822101722          1.0000   
         C         C         1.0       0.7423619607078253  0.5446146542108751  0.13306737650666944          1.0000   
         C         C         1.0       0.751638209240856   0.5541391497144231  0.09350738715543083          1.0000   
         C         C         1.0       0.7633042810376597  0.5454282447400759  0.05868899950534168          1.0000   
         C         C         1.0       0.7656427534547092  0.5279487388684909  0.06706289184866865          1.0000   
         C         C         1.0       0.7567099020614386  0.5188635065835994  0.1085468279132995 1.0000   
         H         H         1.0       0.8080341943489593  0.45873349840574673           0.8156040930257321 1.0000   
         H         H         1.0       0.7854708069917041  0.44058382514084904           0.9703479204391872 1.0000   
         H         H         1.0       0.8098388565316647  0.42025059031308604           0.9810996426476727 1.0000   
         H         H         1.0       0.8260521681888348  0.4352010089748008  0.8113477350864399 1.0000   
         H         H         1.0       0.7537415436312765  0.44738268557760524           0.9601810986436888 1.0000   
         H         H         1.0       0.7308704909676459  0.4301645763166377  0.9313240494301931 1.0000   
         H         H         1.0       0.7486253412417174  0.43305057128759283           0.7553301156494994 1.0000   
         H         H         1.0       0.7726045592256898  0.45072790050138134           0.7882554807153288 1.0000   
         H         H         1.0       0.80031250909124    0.4687176336177683  0.00010388889919332733       1.0000   
         H         H         1.0       0.7908636023157335  0.47798853891095433           0.09283273342428844          1.0000   
         H         H         1.0       0.7457869265333601  0.49816533487705017           0.015986846718039294         1.0000   
         H         H         1.0       0.7506935241701976  0.48126244600345736           0.9337387672446799 1.0000   
         H         H         1.0       0.7821162191039374  0.5070841506183675  0.30992938252803826          1.0000   
         H         H         1.0       0.7604119103467795  0.5001615678017441  0.2400901994155844 1.0000   
         H         H         1.0       0.7976766676897062  0.5082192384797003  0.1058267085517206 1.0000   
         H         H         1.0       0.8195276971677613  0.5141438410036646  0.18170588746705207          1.0000   
         H         H         1.0       0.7280454657982298  0.49839123635765153           0.09873275554359107          1.0000   
         H         H         1.0       0.7055131953332164  0.48065657558366465           0.1402754677507314 1.0000   
         H         H         1.0       0.7431686871921984  0.44871234933680565           0.2155700764421955 1.0000   
         H         H         1.0       0.7656169191114767  0.4693488471047172  0.17627251919329545          1.0000   
         H         H         1.0       0.7364668583581729  0.5223826081067553  0.17376972218229803          1.0000   
         H         H         1.0       0.7347590960922323  0.5512999486481802  0.16338817160449093          1.0000   
         H         H         1.0       0.7717106725869465  0.5523311868295214  0.02578225840531445          1.0000   
         H         H         1.0       0.774583093754345   0.5224985437733903  0.03877148806772768          1.0000   
         C         C         1.0       0.9179502748474335  0.383590523828474   0.007788907267646472         1.0000   
         C         C         1.0       0.9332945140014338  0.3774382088476003  0.026765901750722906         1.0000   
         C         C         1.0       0.9341088393698783  0.36900985224160116           0.07804398185486106          1.0000   
         C         C         1.0       0.9198843198356711  0.3663001731635369  0.11009160344204404          1.0000   
         C         C         1.0       0.9042907509823599  0.36987956573699393           0.08661060078213256          1.0000   
         C         C         1.0       0.9029717668619939  0.37956861528438074           0.03709113051472612          1.0000   
         H         H         1.0       0.9449532344308504  0.3815507520389611  0.006520475516559987         1.0000   
         H         H         1.0       0.946261446989056   0.3638574160941084  0.09097487073895283          1.0000   
         H         H         1.0       0.8928546784455346  0.3661128704275572  0.10529100542324053          1.0000   
         H         H         1.0       0.8910455628961371  0.384923837659552   0.023714272286246674         1.0000   
         C         C         1.0       0.902457197265386   0.38098157135028693           0.21930360808064606          1.0000   
         C         C         1.0       0.9075072337796604  0.36419712030923    0.21942577849067388          1.0000   
         C         C         1.0       0.9000315397433636  0.35340894340658646           0.25968971773632776          1.0000   
         C         C         1.0       0.8870430538675537  0.3596172161568174  0.29608142409649724          1.0000   
         C         C         1.0       0.8802194360269571  0.3760425098001529  0.2883066359713402 1.0000   
         C         C         1.0       0.8893920847318564  0.3869692092947027  0.2526288263003707 1.0000   
         C         C         1.0       0.9219927078467255  0.35857007599019913           0.17359631634396205          1.0000   
         C         C         1.0       0.9381273862882464  0.3650643394748487  0.20711739730793777          1.0000   
         C         C         1.0       0.9456796603918961  0.35501035144614723           0.24793301032960618          1.0000   
         C         C         1.0       0.961371645473521   0.3595926817041349  0.2678958749845583 1.0000   
         C         C         1.0       0.9682034342355702  0.37581306608039455           0.25555470562738314          1.0000   
         C         C         1.0       0.9594712807496436  0.38756601738081553           0.2239345080301453 1.0000   
         C         C         1.0       0.9447221998188201  0.3817138255392725  0.1986872263513113 1.0000   
         C         C         1.0       0.9063384581302761  0.33023748171347583           0.1489196054775328 1.0000   
         C         C         1.0       0.9055009247554148  0.31311654663318017           0.13870972163290696          1.0000   
         C         C         1.0       0.920472590908047   0.3035218376688836  0.13618504344938498          1.0000   
         C         C         1.0       0.9355768814818355  0.31208504988183405           0.14173117902940113          1.0000   
         C         C         1.0       0.9364465526118855  0.32936184013944797           0.1460768927348459 1.0000   
         C         C         1.0       0.9217705799131087  0.33848632822894226           0.1568789744948135 1.0000   
         C         C         1.0       0.920235128319936   0.28322336413304683           0.12281343455599236          1.0000   
         C         C         1.0       0.8660934393480345  0.2736509176975283  0.13684687925437466          1.0000   
         C         C         1.0       0.8746570351292762  0.26804221585105664           0.08845123842921576          1.0000   
         C         C         1.0       0.8923117173155769  0.2696093945000363  0.08557193003594521          1.0000   
         C         C         1.0       0.9017660680604204  0.2759695114344774  0.1312438926683741 1.0000   
         C         C         1.0       0.8928847061171329  0.27786099596717667           0.18274851035099204          1.0000   
         C         C         1.0       0.8751406875192591  0.2753444568784252  0.18788980179397496          1.0000   
         C         C         1.0       0.9312097601717314  0.2726015995796371  0.16660388521961078          1.0000   
         C         C         1.0       0.933829643315079   0.2781870697236592  0.22339950382517793          1.0000   
         C         C         1.0       0.9430683806064106  0.26809072097355935           0.2597261813239078 1.0000   
         C         C         1.0       0.9503640717524346  0.2529867306935611  0.24344191402145343          1.0000   
         C         C         1.0       0.9461050243024207  0.2467561293754933  0.1903718215060961 1.0000   
         C         C         1.0       0.9369151717086516  0.25683003858357367           0.15254388135594543          1.0000   
         C         C         1.0       0.9453349163584659  0.27977153145279193           0.04381909492892655          1.0000   
         C         C         1.0       0.9516058335514317  0.2801176119786369  0.9869769862316311 1.0000   
         C         C         1.0       0.9414125662490838  0.2877542904435265  0.9444414120093323 1.0000   
         C         C         1.0       0.925717418072935   0.294491302399389   0.9581093730496637 1.0000   
         C         C         1.0       0.9190894518588348  0.2934001199506823  0.014240407828329804         1.0000   
         C         C         1.0       0.9282393671377817  0.28484459967019643           0.05796098734203059          1.0000   
         H         H         1.0       0.9065992733108518  0.38995091108099017           0.18771105360507664          1.0000   
         H         H         1.0       0.9042882096965713  0.3400315679535817  0.2657226628751762 1.0000   
         H         H         1.0       0.8811693408897551  0.35251647611515396           0.3317219226524207 1.0000   
         H         H         1.0       0.8848563483415679  0.400204430891504   0.24790270591529717          1.0000   
         H         H         1.0       0.940010009370829   0.3428081355956308  0.26122125765078363          1.0000   
         H         H         1.0       0.9681115716820216  0.351226377812832   0.29765855297551697          1.0000   
         H         H         1.0       0.9647921819332131  0.40058592971946794           0.21002167651367534          1.0000   
         H         H         1.0       0.9378690693534243  0.389601917424426   0.17093377997261375          1.0000   
         H         H         1.0       0.8939449970309199  0.3369860456498011  0.15192512876063025          1.0000   
         H         H         1.0       0.8922377845364232  0.3087808818576822  0.12576554458252032          1.0000   
         H         H         1.0       0.9475248013618399  0.30469014310284326           0.13161753768293027          1.0000   
         H         H         1.0       0.9482692690254992  0.3355400158235577  0.135784562384897  1.0000   
         H         H         1.0       0.8691728844694656  0.263237218831185   0.047885258660325336         1.0000   
         H         H         1.0       0.8993341173381312  0.26486872979230713           0.04982131997809902          1.0000   
         H         H         1.0       0.8984537519032317  0.2841154548098652  0.21800185990841103          1.0000   
         H         H         1.0       0.8690228004512195  0.2774634977017613  0.23063400939547152          1.0000   
         H         H         1.0       0.9270215066733227  0.28916399785896685           0.24291690064072946          1.0000   
         H         H         1.0       0.9467430092021214  0.2724496740520816  0.3004482619809179 1.0000   
         H         H         1.0       0.9502095774251509  0.2344428232200471  0.17131243370613425          1.0000   
         H         H         1.0       0.9330769092598961  0.25291575980089215           0.10801449842918465          1.0000   
         H         H         1.0       0.9547445174132854  0.274444535128159   0.07592249600638556          1.0000   
         H         H         1.0       0.964113444626569   0.27506969344904586           0.9787151507017152 1.0000   
         H         H         1.0       0.9181243755350293  0.2999991507257715  0.92513850518095   1.0000   
         H         H         1.0       0.9059867322629408  0.2943264927475285  0.019886530687697412         1.0000   
         C         C         1.0       0.9652777891721515  0.4115728404292262  0.7765515219509084 1.0000   
         C         C         1.0       0.9725514321110472  0.3966510831787798  0.7986936645323228 1.0000   
         C         C         1.0       0.9668586134611633  0.38118687197457424           0.7750875917538396 1.0000   
         C         C         1.0       0.9528106368837237  0.38073439252679997           0.739153559889544  1.0000   
         C         C         1.0       0.9483188762958081  0.39548855348157275           0.7106942864002488 1.0000   
         C         C         1.0       0.95476626164354    0.41142600232589915           0.7288998402574285 1.0000   
         H         H         1.0       0.9801419867179861  0.39526334581608513           0.8370153642920733 1.0000   
         H         H         1.0       0.9712389679927479  0.37051758371611015           0.798153018514493  1.0000   
         H         H         1.0       0.9403747759144986  0.3957889325806033  0.674909816649976  1.0000   
         H         H         1.0       0.9506266680813061  0.4230785373672309  0.710606999851218  1.0000   
         C         C         1.0       0.9158051522152721  0.3769938425331709  0.767593429740922  1.0000   
         C         C         1.0       0.9230105853694229  0.3634200729326475  0.7366532150857722 1.0000   
         C         C         1.0       0.9106125426696328  0.35073643443428987           0.7220742893225458 1.0000   
         C         C         1.0       0.8931604473395657  0.3521800460984703  0.7306634409822204 1.0000   
         C         C         1.0       0.8865154499216367  0.3670726722413877  0.7553309548165101 1.0000   
         C         C         1.0       0.8986170987910876  0.37929481058766956           0.7734857791138986 1.0000   
         C         C         1.0       0.9430988408984573  0.363019721311797   0.7263439699234808 1.0000   
         C         C         1.0       0.94753583556684    0.34676216939760246           0.7683143633773252 1.0000   
         C         C         1.0       0.9515302353498293  0.3311387756040489  0.7424099837214868 1.0000   
         C         C         1.0       0.9564184619719418  0.3181723793012095  0.7796293264479559 1.0000   
         C         C         1.0       0.9571257332400078  0.3201423193012483  0.8392499773665865 1.0000   
         C         C         1.0       0.952924535817931   0.33507241824778267           0.8613530179552527 1.0000   
         C         C         1.0       0.9474055685576744  0.3482452797467375  0.8279729825519478 1.0000   
         C         C         1.0       0.9357482137954466  0.3619074836925872  0.615658687473796  1.0000   
         C         C         1.0       0.9389659368591211  0.35561342438978166           0.5617144107586106 1.0000   
         C         C         1.0       0.953875159304563   0.345768254467508   0.5490403153148868 1.0000   
         C         C         1.0       0.9667815398961134  0.3470460217184004  0.5895491354822294 1.0000   
         C         C         1.0       0.9635002169267187  0.3549408065663957  0.6429621461795971 1.0000   
         C         C         1.0       0.9475929384691335  0.3603231848723079  0.660933272087643  1.0000   
         C         C         1.0       0.9553980262502244  0.33433075842407256           0.4914158996628118 1.0000   
         C         C         1.0       0.9064195369087615  0.31575011647832146           0.4175194036929692 1.0000   
         C         C         1.0       0.9196132205346992  0.31885797944210814           0.38017293054023976          1.0000   
         C         C         1.0       0.9358545298977361  0.32392572181137996           0.40385767774351045          1.0000   
         C         C         1.0       0.9376287181005989  0.3275967860963029  0.4629170983204425 1.0000   
         C         C         1.0       0.9243614924321193  0.3225309987067418  0.49747107706393767          1.0000   
         C         C         1.0       0.9088988719637706  0.31805063057621696           0.47609719707322573          1.0000   
         C         C         1.0       0.9660009756683968  0.31714807380641014           0.49722998228438253          1.0000   
         C         C         1.0       0.964796096180952   0.30780888998097716           0.5477604113629206 1.0000   
         C         C         1.0       0.9730141006552857  0.2922781847135961  0.5542712728272733 1.0000   
         C         C         1.0       0.9812425206877698  0.2851030881778289  0.5100092851422269 1.0000   
         C         C         1.0       0.9808935139281216  0.2935092994570286  0.4556875177255056 1.0000   
         C         C         1.0       0.9749546234416357  0.30968900619086615           0.4520731757199575 1.0000   
         C         C         1.0       0.9812438433951528  0.35216824775052347           0.44865117987759434          1.0000   
         C         C         1.0       0.9874737944100146  0.36661666615052846           0.4196019431559633 1.0000   
         C         C         1.0       0.9765823208556831  0.3770617378750731  0.39117665108849026          1.0000   
         C         C         1.0       0.9595152143270181  0.3748676068001982  0.3985296518277716 1.0000   
         C         C         1.0       0.9530801248712303  0.36071434794837165           0.42464609259996283          1.0000   
         C         C         1.0       0.9638793625131346  0.34820903889897714           0.4502067897537899 1.0000   
         H         H         1.0       0.9223056023713474  0.388049343021085   0.7817770957732136 1.0000   
         H         H         1.0       0.9146111228464412  0.34043667826441865           0.6966106376110095 1.0000   
         H         H         1.0       0.8854569790807025  0.3415005654119028  0.7154477464030025 1.0000   
         H         H         1.0       0.8934516166870864  0.39028408468459747           0.799677016216749  1.0000   
         H         H         1.0       0.9517675266602701  0.3276060159037411  0.6972693210771124 1.0000   
         H         H         1.0       0.9599441515183725  0.3056356737026312  0.7611862603446247 1.0000   
         H         H         1.0       0.9545066594774685  0.3375941615241624  0.9084658751702919 1.0000   
         H         H         1.0       0.9430799841472661  0.3594631697819142  0.8512199043244449 1.0000   
         H         H         1.0       0.9221882892864561  0.36636835952015623           0.6184825739246101 1.0000   
         H         H         1.0       0.9286383624646911  0.3578825911309061  0.5302025266509682 1.0000   
         H         H         1.0       0.9799773039890999  0.3426664170787465  0.5773024576077854 1.0000   
         H         H         1.0       0.9740462690874648  0.35611798517582494           0.6713037169789767 1.0000   
         H         H         1.0       0.9173775724591428  0.31870505895760926           0.3352035241765768 1.0000   
         H         H         1.0       0.9461888884782217  0.3265385546445631  0.3745551720634565 1.0000   
         H         H         1.0       0.9254421591003662  0.3249426907584838  0.5434021324432515 1.0000   
         H         H         1.0       0.8968606354561979  0.31730580502425293           0.5043906095720431 1.0000   
         H         H         1.0       0.9585137516246428  0.31276801741682236           0.586789802267245  1.0000   
         H         H         1.0       0.9703920280545629  0.28535413828166095           0.5945067669679935 1.0000   
         H         H         1.0       0.9855314454178351  0.2862162677263427  0.4171339510499977 1.0000   
         H         H         1.0       0.9743847368862215  0.31621469889117226           0.40949504875538706          1.0000   
         H         H         1.0       0.9902476583412099  0.34416279608287803           0.4682456588855991 1.0000   
         H         H         1.0       0.0008201127767211158         0.36994672469457446          0.42404625568245824          1.0000   
         H         H         1.0       0.9502890670774821  0.384535536069645   0.37991501955851004          1.0000   
         H         H         1.0       0.939798419914673   0.35987661637842383           0.4339566600367525 1.0000   
         C         C         1.0       0.8923070674967822  0.42566901629564874           0.33744804429517455          1.0000   
         C         C         1.0       0.9037712306779658  0.4309015178507996  0.2956770637508228 1.0000   
         C         C         1.0       0.8981726432069123  0.43786135637183743           0.24453448883821696          1.0000   
         C         C         1.0       0.8811481826695221  0.43957432156251286           0.23253804677634027          1.0000   
         C         C         1.0       0.8694934106268172  0.43635028747299903           0.27755859647195247          1.0000   
         C         C         1.0       0.8752029807825854  0.42867023910807706           0.32845586255457554          1.0000   
         H         H         1.0       0.9174982651708872  0.4275867462326167  0.29711781962471084          1.0000   
         H         H         1.0       0.9083296470023301  0.44080232153163657           0.21462238840282588          1.0000   
         H         H         1.0       0.8563519319816455  0.4384113601128374  0.2705313373765254 1.0000   
         H         H         1.0       0.8664809620744919  0.4269921953508041  0.36012950987923037          1.0000   
         C         C         1.0       0.8516004510947475  0.4225572480525591  0.16510858094844705          1.0000   
         C         C         1.0       0.8570266353768695  0.43873576350191573           0.15046269291817077          1.0000   
         C         C         1.0       0.8451491442428136  0.4491135563690494  0.12505892500929475          1.0000   
         C         C         1.0       0.8279530621918613  0.4445917047120268  0.12317260519291155          1.0000   
         C         C         1.0       0.8229557656081042  0.42821918360022004           0.13852335507715777          1.0000   
         C         C         1.0       0.8347541591265575  0.4176102426159545  0.1606318019502831 1.0000   
         C         C         1.0       0.8756749734027228  0.4446456405703046  0.16685921378929894          1.0000   
         C         C         1.0       0.8865382900551529  0.43705318294334367           0.11554808575957909          1.0000   
         C         C         1.0       0.8871252009958545  0.4449454481721068  0.062077074231438045         1.0000   
         C         C         1.0       0.8975410999372648  0.4385702099278256  0.020737040038193655         1.0000   
         C         C         1.0       0.9080180425489519  0.4244452536861508  0.030503311383689  1.0000   
         C         C         1.0       0.9076402022053767  0.4174136352202556  0.08330686922456974          1.0000   
         C         C         1.0       0.8960216136182189  0.42202747907091803           0.12399989832457547          1.0000   
         C         C         1.0       0.8656780263240749  0.4746756843411631  0.19606329463040306          1.0000   
         C         C         1.0       0.8676103054876793  0.4919775929890699  0.20155398327505725          1.0000   
         C         C         1.0       0.8827286946807485  0.5001636352289061  0.18583242385889598          1.0000   
         C         C         1.0       0.896895989015617   0.4899330162670206  0.1711016897639075 1.0000   
         C         C         1.0       0.8947168892947511  0.47285441598521    0.1670615971848204 1.0000   
         C         C         1.0       0.8789494328431097  0.46462900391248246           0.17619262457093776          1.0000   
         C         C         1.0       0.8853998841050077  0.5200295304757415  0.18406344393944796          1.0000   
         C         C         1.0       0.8396148601919508  0.537854742344179   0.2735508077248612 1.0000   
         C         C         1.0       0.8519587351704244  0.5298393056915996  0.3073444416150406 1.0000   
         C         C         1.0       0.8677751740353369  0.5264094562088781  0.2805712768423356 1.0000   
         C         C         1.0       0.8711393065095381  0.5301549531758766  0.22102198284407248          1.0000   
         C         C         1.0       0.8592568770297807  0.5411799992796452  0.19561242762620146          1.0000   
         C         C         1.0       0.8439265245566221  0.5446245932817814  0.22083623159592203          1.0000   
         C         C         1.0       0.8854039810844827  0.5232058167896725  0.11793912443397803          1.0000   
         C         C         1.0       0.8987814241192891  0.5301299513424135  0.08830025133184005          1.0000   
         C         C         1.0       0.8972787992032693  0.5366594651365566  0.03369311194225011          1.0000   
         C         C         1.0       0.8814884845617745  0.5345387205252681  0.0037037045984984474        1.0000   
         C         C         1.0       0.8683123909894096  0.5252112445377608  0.03137635586242293          1.0000   
         C         C         1.0       0.8699951494423162  0.5209039095080966  0.08841116466137722          1.0000   
         C         C         1.0       0.9070337432953334  0.5443875748944251  0.20994382041333837          1.0000   
         C         C         1.0       0.9218347182336943  0.5509082257380142  0.23698956796139137          1.0000   
         C         C         1.0       0.9302273526313996  0.5409895888904406  0.2767114041219485 1.0000   
         C         C         1.0       0.9244385117033678  0.5247142061526506  0.28881962085288815          1.0000   
         C         C         1.0       0.9108644507871887  0.5179382366947372  0.25926704374533704          1.0000   
         C         C         1.0       0.9023173714431881  0.5269175684837638  0.21500944207084727          1.0000   
         H         H         1.0       0.8606010180011993  0.41257389214695794           0.1762986431300523 1.0000   
         H         H         1.0       0.8507716859231425  0.46075146139922873           0.11075425884462597          1.0000   
         H         H         1.0       0.8193989151565961  0.45255400716518823           0.10279498527629105          1.0000   
         H         H         1.0       0.8310912893140453  0.40459425923342934           0.1743854144098983 1.0000   
         H         H         1.0       0.8802324109514414  0.45703609891351427           0.05353024195096445          1.0000   
         H         H         1.0       0.8989960973710959  0.4453443061512546  0.981352031088361  1.0000   
         H         H         1.0       0.9165935351745005  0.4068089778289876  0.09429982740874321          1.0000   
         H         H         1.0       0.8961750394671624  0.4148812116734912  0.16363709569093413          1.0000   
         H         H         1.0       0.8539580436526515  0.4687321079085689  0.21145573141609852          1.0000   
         H         H         1.0       0.8569216397309877  0.49993437639006516           0.21801807426408248          1.0000   
         H         H         1.0       0.9091592139717765  0.4956394524491728  0.1661553537493603 1.0000   
         H         H         1.0       0.9061001279595576  0.4653140835753199  0.15221234695024233          1.0000   
         H         H         1.0       0.8507053121104496  0.5248351923862307  0.35050631287256007          1.0000   
         H         H         1.0       0.8757130756722589  0.5178411124963731  0.3052324361807186 1.0000   
         H         H         1.0       0.8614750932261014  0.5458129342301784  0.15348524151430487          1.0000   
         H         H         1.0       0.8343278207675571  0.5523795531930715  0.19563853383300933          1.0000   
         H         H         1.0       0.9117992220447303  0.530976597288277   0.10914442886253695          1.0000   
         H         H         1.0       0.9078724079050361  0.5437644684512012  0.012257163561657958         1.0000   
         H         H         1.0       0.8565659567822258  0.521921707336584   0.00855146393676609          1.0000   
         H         H         1.0       0.8590583591709029  0.5124986932352507  0.1060146405813378 1.0000   
         H         H         1.0       0.8983118882754781  0.5530851245087094  0.18688642902781516          1.0000   
         H         H         1.0       0.92616876081641    0.563556162823926   0.22669972771711766          1.0000   
         H         H         1.0       0.9312597895736118  0.5166556007914352  0.3196407274813031 1.0000   
         H         H         1.0       0.9047131535072904  0.5060715278714252  0.26793361490203793          1.0000   
         C         C         1.0       0.874921934404422   0.5130140957570126  0.8717262658284155 1.0000   
         C         C         1.0       0.8911603496721238  0.5104740783740979  0.8490067253981176 1.0000   
         C         C         1.0       0.8960491531207073  0.4942660664686766  0.8321610979143383 1.0000   
         C         C         1.0       0.8851262411408768  0.4804111404426712  0.8342466459824106 1.0000   
         C         C         1.0       0.8682097585306907  0.4833166674337467  0.8540108670301698 1.0000   
         C         C         1.0       0.8634611305002321  0.4991594410501966  0.8743369608205895 1.0000   
         H         H         1.0       0.8994008352747127  0.5212982025281547  0.8507713801761148 1.0000   
         H         H         1.0       0.9094386593823284  0.49266426777061434           0.8223564545861298 1.0000   
         H         H         1.0       0.8590460428068984  0.47290724519807226           0.8464176482192939 1.0000   
         H         H         1.0       0.8514612499895087  0.5006797530348437  0.892698389901028  1.0000   
         C         C         1.0       0.8774069836548064  0.4428952554713313  0.8777135771810405 1.0000   
         C         C         1.0       0.8799826970607239  0.44746615760493863           0.8198866223505037 1.0000   
         C         C         1.0       0.872693960611992   0.4369570664368527  0.7782832628282012 1.0000   
         C         C         1.0       0.8627358997281569  0.4231158214722728  0.7930170219431224 1.0000   
         C         C         1.0       0.8592237426485264  0.4192982915298908  0.8486405454975182 1.0000   
         C         C         1.0       0.8672868149892001  0.42869890361107493           0.8920949024891102 1.0000   
         C         C         1.0       0.8928716620388437  0.4621895265006952  0.8084253021374228 1.0000   
         C         C         1.0       0.9104327367210299  0.45535523518470206           0.8402205279187959 1.0000   
         C         C         1.0       0.915280866394778   0.4390789684548496  0.8189383845195423 1.0000   
         C         C         1.0       0.9311567925482053  0.4323122309559122  0.8293232979127649 1.0000   
         C         C         1.0       0.9431634796006261  0.442004730472432   0.8569334719513951 1.0000   
         C         C         1.0       0.9385349184295017  0.45734232439656847           0.8829597214504491 1.0000   
         C         C         1.0       0.922118666638068   0.463632802488728   0.8783001307635836 1.0000   
         C         C         1.0       0.8822872291748793  0.4732796264761568  0.7088242713870305 1.0000   
         C         C         1.0       0.8845500347196894  0.47828713340061735           0.6540059545160406 1.0000   
         C         C         1.0       0.900695099076175   0.47809388580877255           0.6283312952542439 1.0000   
         C         C         1.0       0.9140501279635644  0.4726394419641412  0.663329716461996  1.0000   
         C         C         1.0       0.9112446822816217  0.4668970631628574  0.717124829513263  1.0000   
         C         C         1.0       0.8957028465610025  0.4670296737791216  0.7423795124783494 1.0000   
         C         C         1.0       0.9022022576307603  0.48355529442087186           0.5632549217339959 1.0000   
         C         C         1.0       0.8760264333413537  0.530038114424391   0.5030528092284043 1.0000   
         C         C         1.0       0.8791306199807847  0.5275812623418011  0.5620923310871598 1.0000   
         C         C         1.0       0.8872657146600473  0.5132013289057554  0.5816035097805538 1.0000   
         C         C         1.0       0.8918574010581364  0.49986980010295046           0.5418792450069996 1.0000   
         C         C         1.0       0.8881586744155511  0.5027464441013898  0.4847482221981048 1.0000   
         C         C         1.0       0.8811095314046609  0.5177152055245829  0.4647977584425964 1.0000   
         C         C         1.0       0.8984348899873291  0.46544325819793714           0.5337293196901638 1.0000   
         C         C         1.0       0.909790938744156   0.45125121470353424           0.5366002274244835 1.0000   
         C         C         1.0       0.9063265186789295  0.435829878993708   0.5101197558256134 1.0000   
         C         C         1.0       0.8917295042309912  0.43377548037411934           0.4810418220291891 1.0000   
         C         C         1.0       0.8799832079546428  0.446874655354628   0.47801573572545897          1.0000   
         C         C         1.0       0.8840069624875522  0.4621194696499208  0.5013204701819424 1.0000   
         C         C         1.0       0.9287658598802025  0.4852760658450232  0.4903001301102872 1.0000   
         C         C         1.0       0.9452852081572348  0.49004033723092066           0.4788301014171746 1.0000   
         C         C         1.0       0.9539652445436096  0.5013764135680397  0.5134238381939455 1.0000   
         C         C         1.0       0.947504982316029   0.5052112432898714  0.5664283148123093 1.0000   
         C         C         1.0       0.9312649832039384  0.4996591371327772  0.5819045581171775 1.0000   
         C         C         1.0       0.9216664899248485  0.48884375636008287           0.544928323189246  1.0000   
         H         H         1.0       0.8828547644033561  0.4497782771922761  0.9098571180604588 1.0000   
         H         H         1.0       0.8749583196255318  0.43876554558076997           0.7338369248161116 1.0000   
         H         H         1.0       0.8565665769608535  0.41550285568229195           0.7579632647997752 1.0000   
         H         H         1.0       0.8629798325124962  0.42517417985592754           0.9359386857255677 1.0000   
         H         H         1.0       0.9061847330569257  0.43172886689152973           0.7935201893697079 1.0000   
         H         H         1.0       0.9342918729987792  0.42038942109331207           0.8129250795598026 1.0000   
         H         H         1.0       0.9476847594922809  0.46445161493618287           0.9084314860864136 1.0000   
         H         H         1.0       0.9193178335091812  0.47598571882801477           0.8936681408549371 1.0000   
         H         H         1.0       0.8701837312501381  0.4767500436360525  0.731090585824408  1.0000   
         H         H         1.0       0.8732716776358878  0.4848561132615143  0.6351774704475229 1.0000   
         H         H         1.0       0.9266247082873728  0.47134833752917665           0.6449059191135348 1.0000   
         H         H         1.0       0.9224678332471377  0.46305247868742844           0.7411179639475329 1.0000   
         H         H         1.0       0.8746757068106686  0.5386064111939136  0.5903767953196288 1.0000   
         H         H         1.0       0.8889712216958654  0.5121963982158948  0.6285032558462944 1.0000   
         H         H         1.0       0.8916825133995946  0.4936676084699751  0.4542933335686393 1.0000   
         H         H         1.0       0.8786118467901395  0.5183267137864159  0.41817272794532895          1.0000   
         H         H         1.0       0.9226616178416172  0.4520190375322646  0.5594348751979931 1.0000   
         H         H         1.0       0.9154126853104034  0.42594052283096323           0.5028541123824484 1.0000   
         H         H         1.0       0.8684680019916754  0.44714839185797317           0.45251958894703675          1.0000   
         H         H         1.0       0.8751334526594611  0.4722294179944982  0.49518577027801947          1.0000   
         H         H         1.0       0.9224983704342173  0.47744600867035497           0.4607630064859721 1.0000   
         H         H         1.0       0.9508705938689704  0.485611161082384   0.43893901951319353          1.0000   
         H         H         1.0       0.9552105132755409  0.5136915267180269  0.5936836321618892 1.0000   
         H         H         1.0       0.9251831561360936  0.5045913440383664  0.6217354438409006 1.0000   
         C         C         1.0       0.00390500168370278           0.9043519868205129 0.3742946592694553 1.0000   
         C         C         1.0       0.009092825807130778          0.9169950903019976 0.3370960303731442 1.0000   
         C         C         1.0       0.9975110302121     0.9276318950389364  0.31156620418947856          1.0000   
         C         C         1.0       0.9803934063794558  0.9261973917680119  0.3248067695903847 1.0000   
         C         C         1.0       0.9752450613467499  0.9154461595437364  0.36746057350711575          1.0000   
         C         C         1.0       0.9867095386494102  0.9042312923988496  0.3916191230967938 1.0000   
         H         H         1.0       0.022280624097294144          0.9184429967255632 0.32183462919068573          1.0000   
         H         H         1.0       0.002578402143948999          0.9369108932976719 0.2821749918278762 1.0000   
         H         H         1.0       0.9610904474036683  0.9153276437622098  0.3741427912073578 1.0000   
         H         H         1.0       0.9819846379296362  0.8945696788435905  0.41948541110046095          1.0000   
         C         C         1.0       0.942400392493859   0.9180955000125254  0.2806754173901398 1.0000   
         C         C         1.0       0.9481496574974245  0.9343481763476612  0.29372691770940373          1.0000   
         C         C         1.0       0.9354519042618155  0.9471792712342998  0.3067744632609317 1.0000   
         C         C         1.0       0.9183396820494787  0.9423603087079889  0.3059795755609245 1.0000   
         C         C         1.0       0.9130017382730925  0.92662125649351    0.28667494965168006          1.0000   
         C         C         1.0       0.9252724174820329  0.914267996380485   0.2775081994999109 1.0000   
         C         C         1.0       0.9679901038354144  0.9393165022066563  0.2919916981978806 1.0000   
         C         C         1.0       0.969798463149548   0.9405064026940548  0.22304690299620167          1.0000   
         C         C         1.0       0.9628254307303401  0.953948706168439   0.19091237215055434          1.0000   
         C         C         1.0       0.9614569932797613  0.9536915975946806  0.13203533580035254          1.0000   
         C         C         1.0       0.9672601623813082  0.9396098847484333  0.10329335185260957          1.0000   
         C         C         1.0       0.9763000512029696  0.9268468591443735  0.13380143761972962          1.0000   
         C         C         1.0       0.9789380569960889  0.928299597841461   0.19170300621190406          1.0000   
         C         C         1.0       0.9675944334884025  0.958781548623634   0.37753905624765904          1.0000   
         C         C         1.0       0.9705229775329982  0.973657877220506   0.4082138657715274 1.0000   
         C         C         1.0       0.9786731179590011  0.986861787525635   0.38334295651641187          1.0000   
         C         C         1.0       0.9861695350820977  0.9850256991891309  0.3285416456208859 1.0000   
         C         C         1.0       0.9838290706592596  0.9692872520811352  0.29929774433176887          1.0000   
         C         C         1.0       0.9733114573856937  0.9563929143012335  0.32072698771551184          1.0000   
         C         C         1.0       0.9813148117474305  0.004771292628661161         0.41877207234033764          1.0000   
         C         C         1.0       0.9330866169505565  0.02250178673257275           0.49905376105676896          1.0000   
         C         C         1.0       0.9490321517128323  0.025192363069156398         0.5281263823100449 1.0000   
         C         C         1.0       0.9640036258351024  0.019000044094075408         0.502629345557772  1.0000   
         C         C         1.0       0.963903860934095   0.010268165805907614         0.4516864588227174 1.0000   
         C         C         1.0       0.9482748650612731  0.008187161218616845         0.4257076901541052 1.0000   
         C         C         1.0       0.9330918012501349  0.01357032989931417           0.44849415806436993          1.0000   
         C         C         1.0       0.984519491547647   0.022955810268305177         0.38647913792528327          1.0000   
         C         C         1.0       0.976687898642785   0.02731741223252815           0.33466588767214556          1.0000   
         C         C         1.0       0.9795694766490548  0.042548635338317986         0.30865173217281544          1.0000   
         C         C         1.0       0.990559656547412   0.054942821555073795         0.33247414986766516          1.0000   
         C         C         1.0       0.9973789176956411  0.05163860824864175           0.3860559794232918 1.0000   
         C         C         1.0       0.993118053601097   0.036565480382760196         0.4153004089834887 1.0000   
         C         C         1.0       0.014449114043206368          0.0015823127108380852        0.43558130836689374          1.0000   
         C         C         1.0       0.027657628099309273          0.9949254167864346 0.46354688845615166          1.0000   
         C         C         1.0       0.02509858826965372           0.9847442940039375 0.5113935795273038 1.0000   
         C         C         1.0       0.008564877041891128          0.9828928620981134 0.5361079949987327 1.0000   
         C         C         1.0       0.994331235759985   0.9888938685225327  0.5069320069634489 1.0000   
         C         C         1.0       0.9969890102511509  0.9992078879341474  0.4552973834465528 1.0000   
         H         H         1.0       0.9505433044229159  0.9073057594792888  0.26716955690176136          1.0000   
         H         H         1.0       0.93853787814435    0.9608713398180708  0.31523239162927   1.0000   
         H         H         1.0       0.9084971025933526  0.9520084197712716  0.30627000080340006          1.0000   
         H         H         1.0       0.9218419149367935  0.9028206463257261  0.2516782449656847 1.0000   
         H         H         1.0       0.9556656449562564  0.9641478286816914  0.21490559379493668          1.0000   
         H         H         1.0       0.9557194846795641  0.9645459591060943  0.1070843688351264 1.0000   
         H         H         1.0       0.9815271663445113  0.9160312681635052  0.11118299849574864          1.0000   
         H         H         1.0       0.9846881466411002  0.9175241748475278  0.21277898775612258          1.0000   
         H         H         1.0       0.9597726687153411  0.9485085519790376  0.39355733172993534          1.0000   
         H         H         1.0       0.9642638723730076  0.9758722599402516  0.4483318550210569 1.0000   
         H         H         1.0       0.9950476338683918  0.9949415565659323  0.3154233526638216 1.0000   
         H         H         1.0       0.9895923730042797  0.9672796278110205  0.257749706904078  1.0000   
         H         H         1.0       0.9510528908602893  0.031485349208735025         0.5709450247771638 1.0000   
         H         H         1.0       0.9765917326500441  0.021747158627449137         0.5237069705133408 1.0000   
         H         H         1.0       0.9473143165408159  0.0036322467129332736        0.38260306255928284          1.0000   
         H         H         1.0       0.9220242768987237  0.012508867631233267         0.4218189856274706 1.0000   
         H         H         1.0       0.9696008507723636  0.01740982107897926           0.31441379718034845          1.0000   
         H         H         1.0       0.9750075759549879  0.04399238455523968           0.26453159443246127          1.0000   
         H         H         1.0       0.005856275180470938          0.061292549878430025         0.407864072900952  1.0000   
         H         H         1.0       0.9983139353230384  0.03449836987934174           0.4563546170157922 1.0000   
         H         H         1.0       0.017463603880471634          0.00846787935728499          0.3948296590797376 1.0000   
         H         H         1.0       0.04077409742002014           0.995968090254524  0.4461520055534449 1.0000   
         H         H         1.0       0.006292549519820945          0.976092296964808  0.577398934317229  1.0000   
         H         H         1.0       0.9814611510289406  0.988549828419923   0.5231186405750702 1.0000   
         C         C         1.0       0.011795487778053726          0.8632329456676356 0.6025523718975293 1.0000   
         C         C         1.0       0.008315495102520165          0.872256693980078  0.6513343547510045 1.0000   
         C         C         1.0       0.0039014508946531024         0.8895894139164036 0.6494996992023515 1.0000   
         C         C         1.0       0.001858497430176742          0.8982302015372873 0.5981871397591351 1.0000   
         C         C         1.0       0.00654682087220837           0.8894694835188134 0.5500390417110806 1.0000   
         C         C         1.0       0.012015834354744959          0.8721404991180968 0.5514529067410568 1.0000   
         H         H         1.0       0.007623310069334366          0.8663038869975968 0.6935276441709478 1.0000   
         H         H         1.0       2.3220740092533276e-05        0.8953291843855622 0.6880364711224912 1.0000   
         H         H         1.0       0.0036434541008962817         0.8946858529244565 0.5080549781702907 1.0000   
         H         H         1.0       0.013027001963101803          0.8654600341998374 0.5123655935941418 1.0000   
         C         C         1.0       0.9671567598256987  0.9289684931174126  0.5278656951346632 1.0000   
         C         C         1.0       0.9746977386463558  0.9143452198279136  0.5500454237422083 1.0000   
         C         C         1.0       0.9668902484357202  0.8985866137847528  0.5392483291432436 1.0000   
         C         C         1.0       0.9510322883792508  0.8979174574300002  0.5130282960151977 1.0000   
         C         C         1.0       0.9440270300863334  0.9126954741595309  0.48946564022737676          1.0000   
         C         C         1.0       0.9522010678680054  0.9282154210313038  0.49619720608151585          1.0000   
         C         C         1.0       0.9921984881378398  0.9162652916228651  0.5894685638633723 1.0000   
         C         C         1.0       0.008405168310567257          0.9270745353302645 0.5694164612756992 1.0000   
         C         C         1.0       0.022006769502360468          0.930128171685686  0.6074554566345165 1.0000   
         C         C         1.0       0.03554344729703218           0.9400609170008227 0.5919850144268202 1.0000   
         C         C         1.0       0.03643719754126962           0.9466825390274977 0.5359346709487658 1.0000   
         C         C         1.0       0.02427554763760753           0.9421967456119166 0.4968381291110213 1.0000   
         C         C         1.0       0.010068768901136949          0.9325577275978533 0.5128169627781171 1.0000   
         C         C         1.0       0.9725665211759807  0.9165410251082173  0.6799883239589911 1.0000   
         C         C         1.0       0.9632292601004784  0.9251891948041291  0.721558166837515  1.0000   
         C         C         1.0       0.9652837136193879  0.9428693818083789  0.7319852330022771 1.0000   
         C         C         1.0       0.976599367664994   0.9512671266447981  0.6973621334738777 1.0000   
         C         C         1.0       0.9846928708764182  0.9427601331639156  0.6510054669669351 1.0000   
         C         C         1.0       0.9841482207994084  0.9254015601638736  0.6436236965456648 1.0000   
         C         C         1.0       0.9547648681532037  0.9520849819819214  0.7776988443621008 1.0000   
         C         C         1.0       0.9089253611462347  0.9592513585501232  0.6746281197896296 1.0000   
         C         C         1.0       0.9089235925774948  0.9465680137409833  0.7158061789301106 1.0000   
         C         C         1.0       0.9228538314975875  0.944977922831554   0.7515719588519751 1.0000   
         C         C         1.0       0.9373951350693063  0.9554442730544833  0.7459137588617332 1.0000   
         C         C         1.0       0.9366623216274197  0.9682293453174377  0.7042645792655688 1.0000   
         C         C         1.0       0.9221108097220467  0.9709650934935614  0.6706170148501628 1.0000   
         C         C         1.0       0.9617454117731287  0.9694385174962268  0.8071684004662524 1.0000   
         C         C         1.0       0.9791091364438548  0.9715371941184978  0.8175390077311825 1.0000   
         C         C         1.0       0.98484146220615    0.9854081085518608  0.8490601867883454 1.0000   
         C         C         1.0       0.9735067476882573  0.996309912907377   0.8774739124612319 1.0000   
         C         C         1.0       0.955715814708029   0.9946044930131472  0.8649483928738554 1.0000   
         C         C         1.0       0.9500594682662151  0.9810970421601177  0.8288367186644132 1.0000   
         C         C         1.0       0.9395404998605392  0.9442438517521992  0.8774627480215752 1.0000   
         C         C         1.0       0.9408047242139366  0.937594587875947   0.9325521030425336 1.0000   
         C         C         1.0       0.9546112229436903  0.9280371073349756  0.947608905420485  1.0000   
         C         C         1.0       0.9686061675759219  0.9259738364546802  0.9095886055404392 1.0000   
         C         C         1.0       0.9676416467270461  0.9336874781996406  0.855939299311365  1.0000   
         C         C         1.0       0.9530883888615646  0.9427199036120919  0.8385888214378286 1.0000   
         H         H         1.0       0.973010066541605   0.9420044357120091  0.5337314970402495 1.0000   
         H         H         1.0       0.9709575041037424  0.8867085534373044  0.5624286003478353 1.0000   
         H         H         1.0       0.9461193513517959  0.8855023436292813  0.5079706931562888 1.0000   
         H         H         1.0       0.9466981728643217  0.9392873789673237  0.4768764545175696 1.0000   
         H         H         1.0       0.02125211903937463           0.925338933782977  0.6514715393898082 1.0000   
         H         H         1.0       0.04478750885609739           0.9436669862603624 0.6268681241849842 1.0000   
         H         H         1.0       0.02397294325571897           0.9455651088367384 0.450180259045627  1.0000   
         H         H         1.0       0.0001991197760564667         0.9289446660673414 0.48297739695778913          1.0000   
         H         H         1.0       0.9696614866109899  0.9035131827235441  0.6711736567132058 1.0000   
         H         H         1.0       0.9552849138113634  0.9194983832509244  0.7522445186498068 1.0000   
         H         H         1.0       0.9776319789599643  0.9648812376856916  0.701823202405653  1.0000   
         H         H         1.0       0.9899991130681577  0.9496580112080257  0.6172768613052773 1.0000   
         H         H         1.0       0.8993883307406971  0.9369145077434881  0.7149644406407641 1.0000   
         H         H         1.0       0.9233903963998734  0.9337810774059195  0.7800675980072026 1.0000   
         H         H         1.0       0.94811951599458    0.9760283270737351  0.6968297884082096 1.0000   
         H         H         1.0       0.9216701288920613  0.9817326384159585  0.6379474320665257 1.0000   
         H         H         1.0       0.9895252415572943  0.9632664863605016  0.7998533912445235 1.0000   
         H         H         1.0       0.9984641954955646  0.984980908206461   0.859980604249724  1.0000   
         H         H         1.0       0.9468509835080758  0.0027117212074376784        0.8900359243756111 1.0000   
         H         H         1.0       0.935731721868543   0.9802466177957658  0.8199640378265147 1.0000   
         H         H         1.0       0.9283092703733603  0.9525227560729064  0.8694173332038002 1.0000   
         H         H         1.0       0.9313080409198113  0.9402552754851259  0.9650351772706498 1.0000   
         H         H         1.0       0.9797088174193651  0.9186257876982373  0.9216776328339428 1.0000   
         H         H         1.0       0.9787667936338963  0.9301781335184999  0.827931946386526  1.0000   
         C         C         1.0       0.014780124848698728          0.8113569778579077 0.14455649235772938          1.0000   
         C         C         1.0       0.014662051689033673          0.8023819626502381 0.1938783839152367 1.0000   
         C         C         1.0       0.0033976361205678707         0.807323413966084  0.23650757022362168          1.0000   
         C         C         1.0       0.9913678695362342  0.8199210612628187  0.22753613588380928          1.0000   
         C         C         1.0       0.9916448684656658  0.8283262231211858  0.17879962468550836          1.0000   
         C         C         1.0       0.004724970556405639          0.825664542681142  0.1399980451510403 1.0000   
         H         H         1.0       0.020963666287389993          0.7904908671523915 0.20114240369027714          1.0000   
         H         H         1.0       0.004391497428722468          0.7988504670862736 0.27374038241868615          1.0000   
         H         H         1.0       0.9813155471275306  0.8377379292754632  0.17219390732393225          1.0000   
         H         H         1.0       0.006157880902373458          0.834625599957194  0.1040788143851048 1.0000   
         C         C         1.0       0.95142465034109    0.8188460530968238  0.20028062080505737          1.0000   
         C         C         1.0       0.957516158401885   0.8286057530717379  0.24638115514432846          1.0000   
         C         C         1.0       0.945849980458208   0.8405099341214478  0.2699417689637015 1.0000   
         C         C         1.0       0.9285154710272462  0.8396329621755357  0.25886888491095117          1.0000   
         C         C         1.0       0.9227690916759985  0.8282573381475513  0.21880857152224076          1.0000   
         C         C         1.0       0.9340468333426782  0.8187675811694217  0.18765377203181854          1.0000   
         C         C         1.0       0.9757299749549756  0.8239328619181087  0.2724006928979157 1.0000   
         C         C         1.0       0.9850892479633304  0.839486926732442   0.3029166842161459 1.0000   
         C         C         1.0       0.9965019301276226  0.8362871408160059  0.34869262756490743          1.0000   
         C         C         1.0       0.007989326353456283          0.8489683991862017 0.365825660241554  1.0000   
         C         C         1.0       0.007315732050312773          0.8646085525216328 0.3431337675888868 1.0000   
         C         C         1.0       0.9966042554625585  0.8679583546282386  0.2995243608740914 1.0000   
         C         C         1.0       0.9849107854180885  0.8560304267108543  0.2818152476007012 1.0000   
         C         C         1.0       0.959766772086501   0.8134499330825252  0.3625985743113844 1.0000   
         C         C         1.0       0.9487539374813113  0.8015732167785129  0.3875504299205125 1.0000   
         C         C         1.0       0.9486248103710583  0.7846157603582573  0.37008279027413415          1.0000   
         C         C         1.0       0.9613439980666422  0.7796872504822121  0.3279454911516429 1.0000   
         C         C         1.0       0.9704802845558266  0.7916682932491383  0.30047788377920853          1.0000   
         C         C         1.0       0.9695748207043923  0.8089117471256145  0.3146694870432873 1.0000   
         C         C         1.0       0.9362794019127624  0.7692182858646711  0.3921266029391403 1.0000   
         C         C         1.0       0.8861092413659675  0.7763021485544608  0.4690369038340557 1.0000   
         C         C         1.0       0.8916820646605852  0.7873096440486218  0.4292938451518929 1.0000   
         C         C         1.0       0.9084239861190945  0.7869509573843269  0.4051696182616145 1.0000   
         C         C         1.0       0.9194389979151524  0.7745411869644824  0.4260666530596178 1.0000   
         C         C         1.0       0.9148463324846987  0.7652112488833639  0.4741334100783101 1.0000   
         C         C         1.0       0.8986226056249019  0.7664260287857608  0.49779271310964296          1.0000   
         C         C         1.0       0.9491171459206854  0.7573917876908227  0.42859845385586864          1.0000   
         C         C         1.0       0.9520753157055413  0.7401685749436464  0.42039495528292203          1.0000   
         C         C         1.0       0.9601563561818017  0.7314818661740612  0.46268259366468195          1.0000   
         C         C         1.0       0.9650025172554163  0.7389427362679998  0.5144591467572693 1.0000   
         C         C         1.0       0.964634630683099   0.7559982008497644  0.5180099144457344 1.0000   
         C         C         1.0       0.9568743802556244  0.7660408275273336  0.476336765748923  1.0000   
         C         C         1.0       0.9221946087822198  0.7434023560691538  0.33357238504683095          1.0000   
         C         C         1.0       0.9160260525514673  0.7357254581499119  0.2852304137568435 1.0000   
         C         C         1.0       0.9136938200725866  0.7457594628700714  0.23599986542866744          1.0000   
         C         C         1.0       0.9153021649637468  0.7632871092937162  0.2410423602021859 1.0000   
         C         C         1.0       0.9228680040539341  0.7701397732316536  0.28950704632276486          1.0000   
         C         C         1.0       0.9270438519464346  0.7602178137942818  0.3372814569069168 1.0000   
         H         H         1.0       0.9603446817492666  0.8103803635112495  0.18024494477238373          1.0000   
         H         H         1.0       0.9510911919335722  0.8488593417584409  0.30154995262513545          1.0000   
         H         H         1.0       0.9190950013511904  0.8490704639101226  0.2734823338993063 1.0000   
         H         H         1.0       0.929901690432793   0.811703668075666   0.1485917657550999 1.0000   
         H         H         1.0       0.9992643114776106  0.8236546294981407  0.3672714917977184 1.0000   
         H         H         1.0       0.019859867387935104          0.848077165112713  0.39311626969395636          1.0000   
         H         H         1.0       0.9964780350651248  0.8808292390425904  0.28110738763036625          1.0000   
         H         H         1.0       0.9776209424118609  0.8591618185985084  0.24307957860423857          1.0000   
         H         H         1.0       0.9587336998327658  0.8264638547502797  0.3751248061855357 1.0000   
         H         H         1.0       0.9387847359071535  0.8058640394770576  0.42046645479916467          1.0000   
         H         H         1.0       0.9609036455692086  0.7669439938228149  0.3076657710572712 1.0000   
         H         H         1.0       0.9772085627158463  0.7865048467977142  0.2625129236288548 1.0000   
         H         H         1.0       0.8814359857741658  0.7950092866297849  0.4110989075592205 1.0000   
         H         H         1.0       0.9119734811017218  0.7963108494291625  0.36792947229821366          1.0000   
         H         H         1.0       0.9222474462130085  0.7536764049643673  0.48738930317094903          1.0000   
         H         H         1.0       0.8945686285850721  0.7586139396219669  0.5318620555511073 1.0000   
         H         H         1.0       0.9479741952125733  0.7321680971618456  0.3843099837978766 1.0000   
         H         H         1.0       0.9618674833807194  0.7189381752884264  0.451936347621454  1.0000   
         H         H         1.0       0.9700710327006693  0.7627712399108473  0.5549909267424384 1.0000   
         H         H         1.0       0.9560843975566921  0.7790776896432615  0.4839140633429956 1.0000   
         H         H         1.0       0.9237886222138704  0.7360206119698371  0.37524416826198703          1.0000   
         H         H         1.0       0.9122288136290426  0.7223700327473705  0.2829430238952065 1.0000   
         H         H         1.0       0.9124151255587248  0.7711925488326177  0.20453266975623516          1.0000   
         H         H         1.0       0.9265787466990862  0.7830149215866679  0.28398136359360676          1.0000   
         C         C         1.0       0.9530726158321269  0.7436671733980533  0.642615080311843  1.0000   
         C         C         1.0       0.9658594195557129  0.753548427303245   0.6646167938163664 1.0000   
         C         C         1.0       0.9629597225078815  0.7709005872669402  0.6708001751983758 1.0000   
         C         C         1.0       0.9472015357393727  0.7776836716344027  0.6656543081727836 1.0000   
         C         C         1.0       0.9340934884822304  0.7666721228767704  0.6497687416888718 1.0000   
         C         C         1.0       0.9361697412792298  0.7501247405875382  0.6375342997601143 1.0000   
         H         H         1.0       0.9794165484694012  0.7497601949636441  0.6718989804749566 1.0000   
         H         H         1.0       0.9737816614610448  0.7781908762974599  0.6821015660303494 1.0000   
         H         H         1.0       0.9207699750774068  0.7713227066664345  0.6485366215355838 1.0000   
         H         H         1.0       0.9258774601960736  0.7431737528220635  0.6226740902901723 1.0000   
         C         C         1.0       0.9249406984006083  0.8029582285527064  0.5800008134287953 1.0000   
         C         C         1.0       0.9298989292009088  0.8061977111891568  0.6372349026853077 1.0000   
         C         C         1.0       0.9234373533942896  0.8206923642607481  0.663503292633926  1.0000   
         C         C         1.0       0.9115330705378243  0.8313258122688578  0.6357560193974203 1.0000   
         C         C         1.0       0.9046527029776025  0.8257904677924757  0.5838844701976686 1.0000   
         C         C         1.0       0.9122912747428183  0.8124173006995177  0.5539555929606579 1.0000   
         C         C         1.0       0.9458357131261046  0.7983432707125087  0.6695977876107972 1.0000   
         C         C         1.0       0.960491644020355   0.8090566380962727  0.6388488625792246 1.0000   
         C         C         1.0       0.9641062039489618  0.8252513901717926  0.6540143376541347 1.0000   
         C         C         1.0       0.978376556945761   0.8332004464503412  0.6317239284152508 1.0000   
         C         C         1.0       0.9868570008341601  0.8258627835134087  0.5865531390330614 1.0000   
         C         C         1.0       0.9808078942055557  0.8114491980678399  0.5627048328102227 1.0000   
         C         C         1.0       0.9678860398496305  0.8024686079345826  0.5910417936840847 1.0000   
         C         C         1.0       0.9316054109621963  0.7920808743749781  0.7722873562620918 1.0000   
         C         C         1.0       0.9331399031707092  0.788880535420221   0.8286830288650878 1.0000   
         C         C         1.0       0.9486347137144598  0.7925964699491874  0.8567410244037276 1.0000   
         C         C         1.0       0.9608972286630424  0.8013756975132497  0.8265788887385287 1.0000   
         C         C         1.0       0.9597798278672302  0.8039013437414291  0.7685128038698963 1.0000   
         C         C         1.0       0.9449148359349794  0.7986719362551209  0.7397777400392982 1.0000   
         C         C         1.0       0.9524910906176606  0.786779437359522   0.9240512840539246 1.0000   
         C         C         1.0       0.9121221978238586  0.8181785579993544  0.9981402804087308 1.0000   
         C         C         1.0       0.9080807634880653  0.8018179959797408  0.9863787059529546 1.0000   
         C         C         1.0       0.9208029777037552  0.7910049154773856  0.9623083970945391 1.0000   
         C         C         1.0       0.9376400113911934  0.7970938519167018  0.9525148912151938 1.0000   
         C         C         1.0       0.941350745272315   0.8138702485567437  0.9670435961542148 1.0000   
         C         C         1.0       0.9286727818712434  0.8243677859219298  0.9872170037073037 1.0000   
         C         C         1.0       0.9705907887578817  0.7897527473387963  0.9554381134875001 1.0000   
         C         C         1.0       0.9862806024744304  0.7891365852898656  0.92762799802157   1.0000   
         C         C         1.0       0.0006399943287749288         0.7954365870985707 0.9540278265301967 1.0000   
         C         C         1.0       0.0010148918405208374         0.8002507942537845 0.009903752295773227         1.0000   
         C         C         1.0       0.9865188226022353  0.7982224832898672  0.042133364150217734         1.0000   
         C         C         1.0       0.9712369021381969  0.7917501489043746  0.015095591019850918         1.0000   
         C         C         1.0       0.9494571844005101  0.757648086947491   0.975190493229853  1.0000   
         C         C         1.0       0.9480786083691249  0.7398432509624147  0.9740947626874024 1.0000   
         C         C         1.0       0.9537595920714541  0.730994618466826   0.9264325002365349 1.0000   
         C         C         1.0       0.9577584692617936  0.7398620561786987  0.8772296697139776 1.0000   
         C         C         1.0       0.9567761082022315  0.7577029018000706  0.8765698158242814 1.0000   
         C         C         1.0       0.9527014217894396  0.7670764201431312  0.9256868329010403 1.0000   
         H         H         1.0       0.9301079019491545  0.7927320029018671  0.5537454860914008 1.0000   
         H         H         1.0       0.9273619419760826  0.82389167084084    0.7067902736427661 1.0000   
         H         H         1.0       0.905759149011377   0.8432833849567177  0.6575103272593845 1.0000   
         H         H         1.0       0.9099356145661123  0.8099872665393595  0.5068301019081112 1.0000   
         H         H         1.0       0.9584638359084282  0.8301707648985466  0.6924876122240742 1.0000   
         H         H         1.0       0.981509619909877   0.8465105179653082  0.6437952481218403 1.0000   
         H         H         1.0       0.987546591164748   0.8055550036069608  0.5270376857761527 1.0000   
         H         H         1.0       0.9643313530209687  0.7895381517034132  0.5800297363811655 1.0000   
         H         H         1.0       0.9196286045920743  0.7874912752174107  0.749816060033281  1.0000   
         H         H         1.0       0.9226681036206066  0.7814250188004834  0.849467601080421  1.0000   
         H         H         1.0       0.9723237523437137  0.8060571118657909  0.8486377769772385 1.0000   
         H         H         1.0       0.9703636988646084  0.808688670366996   0.7468281837835258 1.0000   
         H         H         1.0       0.8949123195722655  0.7956298598923556  0.9843464905981724 1.0000   
         H         H         1.0       0.918963028264445   0.7779648711491625  0.9521206762783818 1.0000   
         H         H         1.0       0.954324351568068   0.8180872594819973  0.9662864592113969 1.0000   
         H         H         1.0       0.9321875076442537  0.8376667948756483  0.9932221548201029 1.0000   
         H         H         1.0       0.9868734960229603  0.784285758109261   0.8834892175819015 1.0000   
         H         H         1.0       0.01230761913185252           0.7939672658658196 0.9311010868605609 1.0000   
         H         H         1.0       0.9862202296854738  0.7994902285904417  0.08771371775734305          1.0000   
         H         H         1.0       0.9611811246608086  0.7895558767230465  0.04448281438025625          1.0000   
         H         H         1.0       0.9445329235376178  0.7638784869054179  0.01002927824082156          1.0000   
         H         H         1.0       0.9451175285018035  0.732650868025711   0.013163873942052318         1.0000   
         H         H         1.0       0.9626704345779635  0.7343345609672488  0.8398220535907636 1.0000   
         H         H         1.0       0.9629370596249015  0.7626360913038789  0.8384668336598606 1.0000   
         C         C         1.0       0.8077393674883624  0.8931576061348784  0.366042930200417  1.0000   
         C         C         1.0       0.803108179484998   0.9091280961686282  0.3897529668045524 1.0000   
         C         C         1.0       0.813426287337075   0.9165640010492034  0.4281951950453609 1.0000   
         C         C         1.0       0.8286871287419862  0.9089824240383094  0.4460859361117392 1.0000   
         C         C         1.0       0.8320603648877395  0.89272007640385    0.42501659212764525          1.0000   
         C         C         1.0       0.822454576258768   0.8854209989242992  0.3853402882695311 1.0000   
         H         H         1.0       0.7912692684161019  0.9144571099624814  0.3795292383729017 1.0000   
         H         H         1.0       0.8089415655689214  0.9281023295158268  0.447349283433008  1.0000   
         H         H         1.0       0.8435268572166236  0.8863028911156376  0.4411307855796177 1.0000   
         H         H         1.0       0.825624477524317   0.8731251939743069  0.3768649735777594 1.0000   
         C         C         1.0       0.8678174485665887  0.9157898216380089  0.5544494142368279 1.0000   
         C         C         1.0       0.8594887750117057  0.91363023578973    0.5021192021605972 1.0000   
         C         C         1.0       0.8696084094496133  0.9117552673388142  0.45314883556865837          1.0000   
         C         C         1.0       0.8867173025363541  0.9120746458816232  0.4574414258445481 1.0000   
         C         C         1.0       0.8945815835649795  0.9146984475190296  0.5094431682091707 1.0000   
         C         C         1.0       0.8857256649492693  0.9163415533571367  0.5583628126060715 1.0000   
         C         C         1.0       0.839367085816849   0.9173661604103879  0.5001669111618675 1.0000   
         C         C         1.0       0.8282929827319969  0.9101716391054938  0.5526966212171932 1.0000   
         C         C         1.0       0.8117427652792313  0.9154876675350467  0.5629075274535186 1.0000   
         C         C         1.0       0.8007142713269725  0.9056242091427571  0.5951757915341037 1.0000   
         C         C         1.0       0.8069156964283111  0.8916110917898925  0.6278601855162563 1.0000   
         C         C         1.0       0.8237046992594392  0.8863149815811172  0.6174095627085097 1.0000   
         C         C         1.0       0.8337302122979217  0.8943550153156548  0.5760850816959618 1.0000   
         C         C         1.0       0.8444049843892479  0.9447701201111259  0.4408402106548749 1.0000   
         C         C         1.0       0.8463471243861663  0.962264420202066   0.4340398602409044 1.0000   
         C         C         1.0       0.8398404102137232  0.973192613443406   0.47407717351933165          1.0000   
         C         C         1.0       0.8365423349110536  0.966701549836109   0.5289046073847745 1.0000   
         C         C         1.0       0.8363823514821217  0.9494364944595707  0.5367297321800487 1.0000   
         C         C         1.0       0.8404534781982157  0.9380344133637212  0.49332237610517454          1.0000   
         C         C         1.0       0.8393947457736299  0.9940838939128451  0.46130815276654963          1.0000   
         C         C         1.0       0.8886426781699113  0.00973090709987523           0.5342548714183019 1.0000   
         C         C         1.0       0.8888746293914032  0.0010580864191700456        0.4834144149261682 1.0000   
         C         C         1.0       0.8730964220284226  0.9962736346507293  0.4592028382844815 1.0000   
         C         C         1.0       0.8571836929549     0.0007707210741660919        0.48445464557006257          1.0000   
         C         C         1.0       0.8587589616984808  0.008944826117488036         0.5370000341441502 1.0000   
         C         C         1.0       0.8736551062490304  0.012862361685356705         0.5619142907265534 1.0000   
         C         C         1.0       0.8242635496153616  0.005542081154373157         0.4871514886949387 1.0000   
         C         C         1.0       0.8089322128396682  0.997791386697064   0.5044008206061765 1.0000   
         C         C         1.0       0.7944768183479309  0.006951081737055054         0.5084057721027385 1.0000   
         C         C         1.0       0.7944351794090636  0.02453175401883989           0.5020796347065307 1.0000   
         C         C         1.0       0.81006141665861    0.03289225320145328           0.49534709947270045          1.0000   
         C         C         1.0       0.8248239397552354  0.02334072875148019           0.4859863345419074 1.0000   
         C         C         1.0       0.8449982949918029  0.008513610694937057         0.3652167119438102 1.0000   
         C         C         1.0       0.8421284915306556  0.011001124584085753         0.307053037775103  1.0000   
         C         C         1.0       0.8289279920825591  0.0032645033995051254        0.2779515578654192 1.0000   
         C         C         1.0       0.8183902897602179  0.9922122876351498  0.30996228146728655          1.0000   
         C         C         1.0       0.8216308901972071  0.9894009420814139  0.36782686786894625          1.0000   
         C         C         1.0       0.8350620648893609  0.9974988494107507  0.39648271792458   1.0000   
         H         H         1.0       0.8607816466221749  0.9180977082767817  0.5920539408106901 1.0000   
         H         H         1.0       0.8650265187104957  0.9105282242065906  0.40889904535898086          1.0000   
         H         H         1.0       0.8933260021823608  0.9120514156440913  0.416423282757557  1.0000   
         H         H         1.0       0.8915726588654781  0.9190557344470465  0.5982408820317437 1.0000   
         H         H         1.0       0.806750459774412   0.925843097913251   0.5390464350022057 1.0000   
         H         H         1.0       0.7874031532079829  0.9097546037765576  0.5981199545398944 1.0000   
         H         H         1.0       0.829464082112369   0.8750244609839539  0.635029444651995  1.0000   
         H         H         1.0       0.8453071898178004  0.8874157578357922  0.5629443812051388 1.0000   
         H         H         1.0       0.8470565653246072  0.9372311793520606  0.4000747500386096 1.0000   
         H         H         1.0       0.8516503521281734  0.9671898461739362  0.3915710159986555 1.0000   
         H         H         1.0       0.8308860623455187  0.9749132920386449  0.5637178474797109 1.0000   
         H         H         1.0       0.8332518365617777  0.9445093611965492  0.5765640673812881 1.0000   
         H         H         1.0       0.8999180245052786  0.9981149088538344  0.4591198005280857 1.0000   
         H         H         1.0       0.873950463756707   0.9894749859306662  0.4195178922961223 1.0000   
         H         H         1.0       0.8482838368907548  0.009420476673605904         0.5657589909971221 1.0000   
         H         H         1.0       0.8739248508653034  0.020413260307971193         0.6009134362211408 1.0000   
         H         H         1.0       0.8073736822868174  0.9841191875645758  0.5076631820025608 1.0000   
         H         H         1.0       0.7829859879988692  0.9995433311600165  0.5112286550927243 1.0000   
         H         H         1.0       0.8107187899403939  0.0464071380832034  0.49231379888104504          1.0000   
         H         H         1.0       0.8359808714032454  0.029238005041570814         0.4672001691253386 1.0000   
         H         H         1.0       0.8560520346431186  0.015084208690707479         0.38361504256550955          1.0000   
         H         H         1.0       0.8514139234867993  0.019597474760063793         0.28353038927175206          1.0000   
         H         H         1.0       0.8086625832657456  0.9842916955470007  0.2877238150230664 1.0000   
         H         H         1.0       0.8123888050192344  0.9822591623121355  0.39052876726285757          1.0000   
         C         C         1.0       0.7991081710591205  0.8866339498516217  0.09765145288105126          1.0000   
         C         C         1.0       0.7910687874076626  0.9025271008757586  0.1039018976828534 1.0000   
         C         C         1.0       0.7997044642553232  0.9175959633375432  0.0921151175703605 1.0000   
         C         C         1.0       0.8158791146793203  0.9170316065717674  0.06873169356694775          1.0000   
         C         C         1.0       0.8225758274804704  0.9011307983984701  0.05233222289846884          1.0000   
         C         C         1.0       0.814475094945809   0.8866873299604531  0.07147981718662866          1.0000   
         H         H         1.0       0.7782138207594669  0.9035018749813418  0.12545315433544424          1.0000   
         H         H         1.0       0.7920133603939478  0.929890601219459   0.10437008349532051          1.0000   
         H         H         1.0       0.8356289793718379  0.9008237992707653  0.03690185690889414          1.0000   
         H         H         1.0       0.8210478343500517  0.8743074085008941  0.05932636862916185          1.0000   
         C         C         1.0       0.8459150112869992  0.9187698068370737  0.1504717554406534 1.0000   
         C         C         1.0       0.8449670823400297  0.9293451024794356  0.10028275216627414          1.0000   
         C         C         1.0       0.859910058708895   0.9387453338337206  0.09118412529465969          1.0000   
         C         C         1.0       0.874673246503359   0.9373455668500705  0.1243921002482764 1.0000   
         C         C         1.0       0.87542869646179    0.9259791709922234  0.16921809431590784          1.0000   
         C         C         1.0       0.861281464523599   0.9172023544077511  0.18413523052033343          1.0000   
         C         C         1.0       0.8283409621971113  0.9330639616468028  0.06567595768771373          1.0000   
         C         C         1.0       0.8224221302566546  0.9512548470906201  0.09420963622838885          1.0000   
         C         C         1.0       0.8284302725693194  0.9667086814534847  0.07229857656269378          1.0000   
         C         C         1.0       0.8251661537512092  0.9816085388754711  0.0986013860678614 1.0000   
         C         C         1.0       0.8163708146756821  0.9819626006479804  0.15105881096608642          1.0000   
         C         C         1.0       0.812349389103942   0.9665773062691093  0.17793613694314292          1.0000   
         C         C         1.0       0.8161613005662804  0.9515945336018963  0.14914259226941184          1.0000   
         C         C         1.0       0.8443624642176156  0.9307881227815777  0.9672645600795883 1.0000   
         C         C         1.0       0.8448750587827389  0.9317506130844605  0.9074782751173023 1.0000   
         C         C         1.0       0.8306103365383699  0.9366531223783475  0.8763299396267711 1.0000   
         C         C         1.0       0.8153698405119736  0.9413513750053778  0.9085404760494508 1.0000   
         C         C         1.0       0.8149654682744648  0.9402343848591151  0.9671838096437024 1.0000   
         C         C         1.0       0.8296140249498362  0.93495328652256    0.9976075664621493 1.0000   
         C         C         1.0       0.8304963729059103  0.9339038550102108  0.807782960332428  1.0000   
         C         C         1.0       0.8671681695204757  0.9601105888104065  0.7009437658405333 1.0000   
         C         C         1.0       0.8579331598336685  0.9467558920572009  0.6797906613011646 1.0000   
         C         C         1.0       0.8492925821954406  0.9359717706869141  0.7161732727068901 1.0000   
         C         C         1.0       0.8475423764387283  0.9395108695013776  0.7748087323052409 1.0000   
         C         C         1.0       0.8575215695102616  0.9532935533716249  0.7954617252735265 1.0000   
         C         C         1.0       0.8682273060700203  0.962541160254895   0.7596876212693885 1.0000   
         C         C         1.0       0.8175135200980141  0.9464653457504619  0.7707125983041752 1.0000   
         C         C         1.0       0.8154332624489545  0.963113295927513   0.7882780205200994 1.0000   
         C         C         1.0       0.8033242263341669  0.9733440925972788  0.7624196375618214 1.0000   
         C         C         1.0       0.7944980479047479  0.9673623332452469  0.7150179423764031 1.0000   
         C         C         1.0       0.7982498087614323  0.9512690724494732  0.6927447121134293 1.0000   
         C         C         1.0       0.8094669566022097  0.9411627182185451  0.7195583351526893 1.0000   
         C         C         1.0       0.8061578232871305  0.910353764857543   0.8109138460554292 1.0000   
         C         C         1.0       0.7995943900499706  0.8943394664345343  0.7939263013900482 1.0000   
         C         C         1.0       0.809850738331775   0.8837568337660299  0.7616639025646579 1.0000   
         C         C         1.0       0.8271984352210989  0.8865068113920211  0.7596105161769725 1.0000   
         C         C         1.0       0.8342376893212617  0.9011707441226898  0.7832746665242766 1.0000   
         C         C         1.0       0.823597583941811   0.9145631704192373  0.8026775580971407 1.0000   
         H         H         1.0       0.8336674391633494  0.9117811871630236  0.16351449183420197          1.0000   
         H         H         1.0       0.8611598555054871  0.9481696698169696  0.05568241425115916          1.0000   
         H         H         1.0       0.8864718304989414  0.9441190591918864  0.1167982295696679 1.0000   
         H         H         1.0       0.8622344154721908  0.9078788295262159  0.2193075930951709 1.0000   
         H         H         1.0       0.8358856419195085  0.9677282232441309  0.031824208235879725         1.0000   
         H         H         1.0       0.8299721970113528  0.9933098944139171  0.08176415935440429          1.0000   
         H         H         1.0       0.8082283091560075  0.965031898690984   0.22090258105417981          1.0000   
         H         H         1.0       0.8153252745018968  0.9410225770166288  0.1756841013255912 1.0000   
         H         H         1.0       0.8560053604590756  0.9278873980311728  0.990481035810316  1.0000   
         H         H         1.0       0.8558389310871812  0.9264390019076951  0.882446325282923  1.0000   
         H         H         1.0       0.8031766958798282  0.9429279834639956  0.8861488404557459 1.0000   
         H         H         1.0       0.8035743419269283  0.9425236387868006  0.986081213630681  1.0000   
         H         H         1.0       0.8565142064251632  0.9452915683894301  0.6337162004335629 1.0000   
         H         H         1.0       0.8417980710732501  0.9260301864530457  0.6941461201801127 1.0000   
         H         H         1.0       0.8579744328506453  0.9564985943486966  0.8429396786229629 1.0000   
         H         H         1.0       0.8755864346743463  0.9740524108996941  0.7771815869509656 1.0000   
         H         H         1.0       0.8200086339952571  0.9671022954106803  0.8293405509055217 1.0000   
         H         H         1.0       0.7992771913268194  0.9851718213495867  0.7838419277405745 1.0000   
         H         H         1.0       0.792255188592862   0.9481370801861291  0.6532266569595901 1.0000   
         H         H         1.0       0.8122844505661033  0.9294149382466975  0.6996351210128035 1.0000   
         H         H         1.0       0.7975908611761144  0.9212036157224293  0.8229094299561465 1.0000   
         H         H         1.0       0.7864451980620801  0.8941852708621069  0.7884721497947467 1.0000   
         H         H         1.0       0.8359312820751925  0.8764225541961048  0.7467237750343039 1.0000   
         H         H         1.0       0.8476146066584975  0.9035308449340306  0.7774862765073256 1.0000   
         C         C         1.0       0.7686124652974546  0.8350797210562274  0.6903812454587966 1.0000   
         C         C         1.0       0.7614225525805018  0.8372126773930016  0.6361544828944415 1.0000   
         C         C         1.0       0.7705932244236431  0.8328312578541374  0.5888376499823522 1.0000   
         C         C         1.0       0.7876516616984958  0.8286456903254907  0.5907604900721068 1.0000   
         C         C         1.0       0.7944289621475853  0.8250442513096604  0.6441419935210418 1.0000   
         C         C         1.0       0.7849688018802028  0.8282404845019969  0.6936979473353774 1.0000   
         H         H         1.0       0.7476355027122596  0.8392273796087117  0.6328052712317047 1.0000   
         H         H         1.0       0.7638729955081226  0.83496370566927    0.5478884958470456 1.0000   
         H         H         1.0       0.8064400597894178  0.8186617081271296  0.6458039407595584 1.0000   
         H         H         1.0       0.7898521524127913  0.8238453779647001  0.7330652771686089 1.0000   
         C         C         1.0       0.8276993742235774  0.8396219267555237  0.5684418990206848 1.0000   
         C         C         1.0       0.8191872462499806  0.82645345364879    0.5391473120531569 1.0000   
         C         C         1.0       0.8296646823386659  0.8148190208737143  0.5142988454623758 1.0000   
         C         C         1.0       0.8472932070565429  0.8146289400135228  0.5239668133022131 1.0000   
         C         C         1.0       0.8543960597000442  0.8265409793695454  0.5617992209962631 1.0000   
         C         C         1.0       0.8452524550377772  0.8398114861363888  0.5805095764631405 1.0000   
         C         C         1.0       0.7981130372279099  0.8257509923654607  0.5318363654470041 1.0000   
         C         C         1.0       0.7950156523934054  0.8401015120540304  0.4845183884280963 1.0000   
         C         C         1.0       0.7998239039883365  0.8376004411589997  0.4281115022361849 1.0000   
         C         C         1.0       0.7943073074727695  0.8487772308334202  0.38593056677733534          1.0000   
         C         C         1.0       0.7852452579166     0.8632976627623995  0.3990218382413576 1.0000   
         C         C         1.0       0.782308480051319   0.8664394530057238  0.4571765545564445 1.0000   
         C         C         1.0       0.7878962583526008  0.8560603430368021  0.49793735880462325          1.0000   
         C         C         1.0       0.7953859331653733  0.7925662424870138  0.550335882030671  1.0000   
         C         C         1.0       0.7906261929215987  0.775932077233889   0.5344870032483504 1.0000   
         C         C         1.0       0.7855197477793989  0.7722398452845286  0.47959984769060066          1.0000   
         C         C         1.0       0.7805210327579025  0.7860804178946595  0.44581094464387877          1.0000   
         C         C         1.0       0.7830800258382172  0.8025663026745086  0.465215226076087  1.0000   
         C         C         1.0       0.7911702954515595  0.8067473516721411  0.5158596310625829 1.0000   
         C         C         1.0       0.7855061881937133  0.7525325382378572  0.46140077600071605          1.0000   
         C         C         1.0       0.8424045869906835  0.7517006097688584  0.4589694532998669 1.0000   
         C         C         1.0       0.8333989406617187  0.7446936327768463  0.5039258770041093 1.0000   
         C         C         1.0       0.8160746236260181  0.7438585504433167  0.5038677053198031 1.0000   
         C         C         1.0       0.8065644121684379  0.7500548864601065  0.4584026527858861 1.0000   
         C         C         1.0       0.8157337094582374  0.7556156229599369  0.40829695702845   1.0000   
         C         C         1.0       0.8331732472494052  0.7569050889143747  0.4091048106267381 1.0000   
         C         C         1.0       0.7789112755864497  0.7466162621890099  0.4006377511803502 1.0000   
         C         C         1.0       0.7651283652569674  0.7542939192655174  0.37352260943119153          1.0000   
         C         C         1.0       0.7627435358474267  0.7521351742057025  0.31387732403199353          1.0000   
         C         C         1.0       0.771568266817469   0.7395382145077893  0.2860691005057864 1.0000   
         C         C         1.0       0.7821063003537982  0.7290107710903154  0.31753981311280555          1.0000   
         C         C         1.0       0.7851816830489905  0.7318650751625208  0.37405282518893945          1.0000   
         C         C         1.0       0.7776815470976279  0.7249495006731858  0.5084887395690997 1.0000   
         C         C         1.0       0.766240941129858   0.7140475013050848  0.5339608710589673 1.0000   
         C         C         1.0       0.7497163537028663  0.7203854547984063  0.5485790966652709 1.0000   
         C         C         1.0       0.7453547823064993  0.7367994099829209  0.5372857754376383 1.0000   
         C         C         1.0       0.757354073926314   0.7469567043933455  0.5138026892166888 1.0000   
         C         C         1.0       0.7736224035642841  0.7415084634339785  0.4989838636025819 1.0000   
         H         H         1.0       0.8200343575268967  0.850108741977641   0.5863391019048632 1.0000   
         H         H         1.0       0.8245493222314791  0.803378431486758   0.49210798693539637          1.0000   
         H         H         1.0       0.8549903940243339  0.8048809040836831  0.5008158680505038 1.0000   
         H         H         1.0       0.8499966281773763  0.8490527001233191  0.6120305354922743 1.0000   
         H         H         1.0       0.8088977270823147  0.8271263219266409  0.4195018464363583 1.0000   
         H         H         1.0       0.7973990973131134  0.8467138210565951  0.3393651853844105 1.0000   
         H         H         1.0       0.7750770536957408  0.8778339385162426  0.46878382644445993          1.0000   
         H         H         1.0       0.7882695322405251  0.8605311642901499  0.5422038941384422 1.0000   
         H         H         1.0       0.8015199019375958  0.7955518838759765  0.5906743023994467 1.0000   
         H         H         1.0       0.792125781528991   0.7655175903755475  0.5633863111360706 1.0000   
         H         H         1.0       0.7775295858504953  0.7850950913344551  0.3993685557104636 1.0000   
         H         H         1.0       0.7807808560806382  0.8126224606187119  0.4335352972395955 1.0000   
         H         H         1.0       0.8401079937845343  0.7412655693916423  0.5424449261715842 1.0000   
         H         H         1.0       0.809394557211908   0.7379441247267761  0.5395569821115928 1.0000   
         H         H         1.0       0.8106656866305275  0.7617078910371006  0.36801365114786244          1.0000   
         H         H         1.0       0.8383314537829571  0.7630018950273938  0.36991327767408505          1.0000   
         H         H         1.0       0.7564603216412521  0.7634385451263127  0.39604391741807377          1.0000   
         H         H         1.0       0.752151797661503   0.7582711819385289  0.28771780401726843          1.0000   
         H         H         1.0       0.7872297779866969  0.7180242764567388  0.29919120369162433          1.0000   
         H         H         1.0       0.7930688472920698  0.72217499327944    0.3973947542618116 1.0000   
         H         H         1.0       0.7896914989346604  0.7193842713633473  0.4956042501575478 1.0000   
         H         H         1.0       0.7702983120595878  0.7010053838525985  0.540459879482908  1.0000   
         H         H         1.0       0.7319174588067849  0.7424100486608075  0.5439459166420593 1.0000   
         H         H         1.0       0.7534310552974018  0.7597825254765752  0.5036173030694608 1.0000   
         C         C         1.0       0.7942645961298863  0.7521685843752044  0.18582668448558537          1.0000   
         C         C         1.0       0.7870311430090493  0.7679321959962309  0.18149527611472616          1.0000   
         C         C         1.0       0.7970165480497032  0.78204386916368    0.1741293952649885 1.0000   
         C         C         1.0       0.8146026711265144  0.781140751410957   0.17075699068970907          1.0000   
         C         C         1.0       0.8218246543562369  0.7645317623404211  0.1761017172842807 1.0000   
         C         C         1.0       0.8110127377036611  0.7502795067473385  0.1790427138378925 1.0000   
         H         H         1.0       0.7735590546895654  0.7692510467872583  0.17926533135033407          1.0000   
         H         H         1.0       0.7894068639971912  0.7934992916804409  0.1703120156371858 1.0000   
         H         H         1.0       0.8361699211572137  0.7641636559996634  0.17528562457956975          1.0000   
         H         H         1.0       0.8160218232480063  0.7371105717149607  0.17768135662372112          1.0000   
         C         C         1.0       0.8491543240863502  0.7972177502964709  0.23413323511924933          1.0000   
         C         C         1.0       0.846112168311519   0.7980389239235215  0.17368765370311   1.0000   
         C         C         1.0       0.8600896974496611  0.8004258874456497  0.13690009169323636          1.0000   
         C         C         1.0       0.8767479636817935  0.8032351309941761  0.15709159659685668          1.0000   
         C         C         1.0       0.8790696387669501  0.8034109992143024  0.2144718686005831 1.0000   
         C         C         1.0       0.8659611250454395  0.7999023842646384  0.2516308475776572 1.0000   
         C         C         1.0       0.8261059455108806  0.7975997686394606  0.15354819356372662          1.0000   
         C         C         1.0       0.8220536303902407  0.8169964984944547  0.17669041458504608          1.0000   
         C         C         1.0       0.8302334835178461  0.8316475450614851  0.1563344499000534 1.0000   
         C         C         1.0       0.8231895329918356  0.8472088705169868  0.15899055390808758          1.0000   
         C         C         1.0       0.807311244318432   0.8485776818655253  0.19073732670837185          1.0000   
         C         C         1.0       0.7993229420995334  0.8344542185560058  0.21564980286836755          1.0000   
         C         C         1.0       0.8079979220574013  0.8193281477271095  0.21479435269045877          1.0000   
         C         C         1.0       0.8322383795358839  0.787880532863259   0.04966018632744551          1.0000   
         C         C         1.0       0.8326094242319767  0.7902430220921783  0.9920226465662174 1.0000   
         C         C         1.0       0.8208698216724335  0.8018636319228565  0.9641036860007096 1.0000   
         C         C         1.0       0.8093269065371084  0.8093558390265932  0.0001248463417109491        1.0000   
         C         C         1.0       0.8095534646421187  0.8074168476790847  0.05768424838778485          1.0000   
         C         C         1.0       0.8221777146844752  0.7976554813886484  0.08687338491976915          1.0000   
         C         C         1.0       0.8233993824903492  0.8102217357672636  0.901136799300302  1.0000   
         C         C         1.0       0.8729635052651173  0.8336206276030079  0.9437989313586373 1.0000   
         C         C         1.0       0.8727149147070865  0.8186373388391758  0.9107603560312519 1.0000   
         C         C         1.0       0.8571755507006342  0.811850469611983   0.893597897290891  1.0000   
         C         C         1.0       0.8415967297296969  0.8200893876480065  0.9046066051581825 1.0000   
         C         C         1.0       0.8428865522700021  0.8347395667500613  0.939400657086741  1.0000   
         C         C         1.0       0.8582557158895485  0.8425430007241942  0.9546892545047596 1.0000   
         C         C         1.0       0.8074744396127587  0.8220915437714503  0.8812304266974826 1.0000   
         C         C         1.0       0.7914272853628594  0.8137979233031929  0.8769059548152043 1.0000   
         C         C         1.0       0.777745293816637   0.8219674451605533  0.8483152055521643 1.0000   
         C         C         1.0       0.778783253574894   0.8390194570641973  0.8345340937284604 1.0000   
         C         C         1.0       0.79346949123899    0.8475182119230975  0.8456525865778143 1.0000   
         C         C         1.0       0.8076805855777202  0.8391970676047628  0.8647305556774125 1.0000   
         C         C         1.0       0.8299646648739805  0.8041774044864073  0.7959244266070271 1.0000   
         C         C         1.0       0.8335491120316544  0.7937158738561109  0.7494172649197525 1.0000   
         C         C         1.0       0.8311687595666107  0.7762244079015032  0.7555407834865641 1.0000   
         C         C         1.0       0.8243972653728479  0.7696610464267717  0.8052417543848306 1.0000   
         C         C         1.0       0.8204415346067961  0.779598932004924   0.8514486518530386 1.0000   
         C         C         1.0       0.8242290925102307  0.797200199229865   0.8481887054066382 1.0000   
         H         H         1.0       0.8385937895115809  0.7950419433345152  0.26450780397613327          1.0000   
         H         H         1.0       0.8574999775705451  0.8039631031961392  0.09182707440059379          1.0000   
         H         H         1.0       0.8867555196389952  0.8066510242484839  0.12462275443361737          1.0000   
         H         H         1.0       0.8695579016688739  0.7995937858853561  0.29819633379755844          1.0000   
         H         H         1.0       0.8398903485027613  0.8307003296250787  0.12366569513289671          1.0000   
         H         H         1.0       0.8293942560157079  0.8577374394753335  0.13639315423376508          1.0000   
         H         H         1.0       0.7863040943239725  0.8347457178100709  0.23545010972996994          1.0000   
         H         H         1.0       0.8016226197409551  0.8085352792194657  0.2363157515540919 1.0000   
         H         H         1.0       0.8411998332493255  0.7786447947696647  0.07208619466994381          1.0000   
         H         H         1.0       0.842869866731966   0.7827711434939191  0.9718961645017078 1.0000   
         H         H         1.0       0.7996302261978815  0.8173452823847366  0.9870653524478482 1.0000   
         H         H         1.0       0.8007720325421932  0.816011477961016   0.08219154434976272          1.0000   
         H         H         1.0       0.884763905460181   0.8125862180895261  0.8939741448653247 1.0000   
         H         H         1.0       0.857751814670866   0.7994590493099695  0.8737680571137791 1.0000   
         H         H         1.0       0.8312938331487534  0.838751922045859   0.9584538351725514 1.0000   
         H         H         1.0       0.857412840380897   0.8535374903951767  0.9818943841117934 1.0000   
         H         H         1.0       0.7910118179558278  0.8000572389755702  0.8840254660633468 1.0000   
         H         H         1.0       0.7656453025794753  0.8145131287324952  0.8455458364519433 1.0000   
         H         H         1.0       0.7948547235138333  0.8612624023945805  0.8353779672666707 1.0000   
         H         H         1.0       0.8194888932620832  0.846549716033266   0.8661953514850077 1.0000   
         H         H         1.0       0.8315455573726979  0.8178451534370095  0.7956982718640562 1.0000   
         H         H         1.0       0.8368669728540258  0.7990304228065436  0.7091542857547543 1.0000   
         H         H         1.0       0.8209613376423655  0.7564313431864893  0.8056142301639372 1.0000   
         H         H         1.0       0.8134684370438016  0.7751016566505803  0.887358931309546  1.0000   
         C         C         1.0       0.018025164693914464          0.7758722446752131 0.5450399813645026 1.0000   
         C         C         1.0       0.030471941646446066          0.7798711665978231 0.5050784890688259 1.0000   
         C         C         1.0       0.03134367027060647           0.7701087536614785 0.4549990223573479 1.0000   
         C         C         1.0       0.021284103714324765          0.7562227029511762 0.4457715551247946 1.0000   
         C         C         1.0       0.008092921653938046          0.7534838034090017 0.48458731818520145          1.0000   
         C         C         1.0       0.006484236972109203          0.7623416861564377 0.5339990799208485 1.0000   
         H         H         1.0       0.037556945859156476          0.7921471144927315 0.506801759571499  1.0000   
         H         H         1.0       0.03932996379355114           0.774641204796353  0.41979513464107876          1.0000   
         H         H         1.0       0.9995715220543171  0.7421497559640075  0.477899833070923  1.0000   
         H         H         1.0       0.9993045988123246  0.7577757247037031  0.5704532857212561 1.0000   
         C         C         1.0       0.027958275239304164          0.717720976699361  0.4801767775349808 1.0000   
         C         C         1.0       0.02271428010254173           0.7228220029814747 0.4257640134570087 1.0000   
         C         C         1.0       0.01590538113024187           0.7091939800257343 0.3921068145912777 1.0000   
         C         C         1.0       0.017134979990332644          0.692785575490683  0.4106250002908881 1.0000   
         C         C         1.0       0.025695669845981373          0.6880344559624644 0.4580349527830473 1.0000   
         C         C         1.0       0.02903120552760141           0.7009050097257071 0.49599351576858136          1.0000   
         C         C         1.0       0.02482109024908663           0.7414246441128652 0.40170131204886256          1.0000   
         C         C         1.0       0.044483980130340495          0.7385317044609202 0.38111677580929776          1.0000   
         C         C         1.0       0.048767163926987545          0.730016769901708  0.3304753065609256 1.0000   
         C         C         1.0       0.06494594070262605           0.723661796840885  0.32298500259531554          1.0000   
         C         C         1.0       0.07755547294364318           0.7249199986647213 0.36556126867389177          1.0000   
         C         C         1.0       0.07350448023145684           0.7337267917741112 0.4137749989132678 1.0000   
         C         C         1.0       0.05747163504881381           0.7408367824629012 0.42058533848472396          1.0000   
         C         C         1.0       0.9937690581833655  0.7413511583758741  0.3484759171905895 1.0000   
         C         C         1.0       0.9854047384810056  0.7404850511628916  0.2959621866457549 1.0000   
         C         C         1.0       0.9945125347997359  0.7431529013985763  0.24593224650831647          1.0000   
         C         C         1.0       0.010519849188076469          0.7505627381074579 0.2508010505083522 1.0000   
         C         C         1.0       0.01793841085072212           0.7540504649108402 0.30372396431316484          1.0000   
         C         C         1.0       0.011086560895313902          0.7468864651910129 0.35199445201781093          1.0000   
         C         C         1.0       0.9905346456293315  0.7312884374245716  0.1899928322646393 1.0000   
         C         C         1.0       0.005572713768992266          0.6813824441877714 0.25974768463272074          1.0000   
         C         C         1.0       0.9896788106224056  0.6881832383276294  0.26933345186794566          1.0000   
         C         C         1.0       0.9854600610004736  0.70281114288029    0.24447987316975786          1.0000   
         C         C         1.0       0.9968467365043583  0.7127738048754103  0.21406042302312633          1.0000   
         C         C         1.0       0.014115134167109522          0.7078157330939816 0.21561672404710908          1.0000   
         C         C         1.0       0.018244628104984395          0.6918142826307153 0.2359611350660662 1.0000   
         C         C         1.0       0.0017929295283656277         0.7358341843492912 0.13099074584275402          1.0000   
         C         C         1.0       0.00604117387503722           0.7526173905490929 0.11270488182181161          1.0000   
         C         C         1.0       0.017086237584875263          0.7544663577952238 0.06659008493263974          1.0000   
         C         C         1.0       0.02448271323851814           0.7400721572603828 0.04110153389668203          1.0000   
         C         C         1.0       0.017248490636270652          0.7238577504808514 0.05224921612342559          1.0000   
         C         C         1.0       0.005474142769860579          0.7224955192854583 0.09498745360679427          1.0000   
         C         C         1.0       0.9618506059043561  0.7192824919903117  0.14403717649118103          1.0000   
         C         C         1.0       0.9446672675840547  0.7220167428407405  0.12934258239625418          1.0000   
         C         C         1.0       0.9366316832581771  0.737956383795386   0.13715940545589922          1.0000   
         C         C         1.0       0.9469374158099316  0.751421791978023   0.14998677816452155          1.0000   
         C         C         1.0       0.9637504118173331  0.748959026995681   0.1665452475772954 1.0000   
         C         C         1.0       0.971657076921094   0.7326131018858913  0.1654761118922088 1.0000   
         H         H         1.0       0.03358097916532432           0.7276700177037357 0.5071405305861633 1.0000   
         H         H         1.0       0.009562361440821121          0.7099356354600028 0.3505498529348569 1.0000   
         H         H         1.0       0.014637885426728614          0.6826252376971436 0.38081417786465444          1.0000   
         H         H         1.0       0.035287837732685734          0.6969785696856395 0.5363315272328383 1.0000   
         H         H         1.0       0.03880133277560027           0.7281079835539443 0.29803376193089026          1.0000   
         H         H         1.0       0.06663881059317522           0.71706268810382   0.2832345194679583 1.0000   
         H         H         1.0       0.08249006505348899           0.7344781792382383 0.44896417201839806          1.0000   
         H         H         1.0       0.054231978692967475          0.7470983819231658 0.4592764028326629 1.0000   
         H         H         1.0       0.9871538336587199  0.736372596571045   0.38553815191596114          1.0000   
         H         H         1.0       0.9729785739395438  0.7340008243455295  0.2952635244863434 1.0000   
         H         H         1.0       0.01821733593156094           0.7526760989954625 0.21385811566293716          1.0000   
         H         H         1.0       0.030872708313899766          0.760733384982278  0.3009823625690336 1.0000   
         H         H         1.0       0.9798182194770957  0.6809279713399538  0.29308705680540903          1.0000   
         H         H         1.0       0.9726784248211638  0.7070016297141186  0.2525100692942853 1.0000   
         H         H         1.0       0.02366185769698026           0.71629736431055   0.1997178089795353 1.0000   
         H         H         1.0       0.031395106432874575          0.68696395650318   0.23647195426606887          1.0000   
         H         H         1.0       0.002172544462117454          0.7643253203896716 0.1327890429955497 1.0000   
         H         H         1.0       0.019348049269195755          0.7673212358195621 0.05643798638090013          1.0000   
         H         H         1.0       0.02311213460935746           0.7127661062697714 0.03582380103492411          1.0000   
         H         H         1.0       0.0030612598997659113         0.7092703951346239 0.10118619021488562          1.0000   
         H         H         1.0       0.9662049983455545  0.7062342270515245  0.13527174217535734          1.0000   
         H         H         1.0       0.9372689625056173  0.7117310522284583  0.11608250648791259          1.0000   
         H         H         1.0       0.9414038326841034  0.7627828616714308  0.14985030150341486          1.0000   
         H         H         1.0       0.970882920046432   0.7596778584096368  0.18303940584033904          1.0000   
         C         C         1.0       0.0512791124884171  0.7224550798214653  0.9259697861860469 1.0000   
         C         C         1.0       0.06542713071810335           0.7290983026587033 0.8948841271584145 1.0000   
         C         C         1.0       0.0771903708470385  0.7175241858473917  0.8736987614480876 1.0000   
         C         C         1.0       0.07479222582146816           0.699586189513284  0.8817036454910498 1.0000   
         C         C         1.0       0.06255009999997752           0.6947272193147443 0.9200255743548319 1.0000   
         C         C         1.0       0.05010781614809856           0.7053987087461989 0.938875965701738  1.0000   
         H         H         1.0       0.06605706941743095           0.7432821330038352 0.8941876582537436 1.0000   
         H         H         1.0       0.08764521148569049           0.7222056030601934 0.8455517654306266 1.0000   
         H         H         1.0       0.0617132300469021  0.6816503300180622  0.9259595849208803 1.0000   
         H         H         1.0       0.03989609506291769           0.6996999066705526 0.9678784603806331 1.0000   
         C         C         1.0       0.09105989622021693           0.6645995886763095 0.9156822507395656 1.0000   
         C         C         1.0       0.08662225699683646           0.6679624493532134 0.8575427647089372 1.0000   
         C         C         1.0       0.08782068868415971           0.6548192203384722 0.81634983566543   1.0000   
         C         C         1.0       0.0945999448554613  0.6393215920123493  0.8315391425226631 1.0000   
         C         C         1.0       0.10070127314732558           0.6365808106475587 0.8857318248410401 1.0000   
         C         C         1.0       0.09734568346541494           0.6483684910060944 0.9276853798783771 1.0000   
         C         C         1.0       0.08245687319561745           0.6870772976991407 0.8390581685818217 1.0000   
         C         C         1.0       0.10147199944740204           0.692756997746336  0.8127374728536854 1.0000   
         C         C         1.0       0.10736640933336172           0.6889868392019461 0.7572865606455367 1.0000   
         C         C         1.0       0.12222522489278242           0.6960114520926014 0.7357070812006605 1.0000   
         C         C         1.0       0.1321482216622636  0.7059284253275857  0.772492144904124  1.0000   
         C         C         1.0       0.12791982905679    0.7077539040153557  0.8307727129048094 1.0000   
         C         C         1.0       0.11290508028304247           0.7004803482597562 0.8523613229567137 1.0000   
         C         C         1.0       0.05255534499832759           0.6770151447580299 0.8008545168378445 1.0000   
         C         C         1.0       0.036691640939362946          0.6819163786017888 0.7804049280283333 1.0000   
         C         C         1.0       0.03507177274991413           0.6965880240573661 0.7471827755069649 1.0000   
         C         C         1.0       0.05030599197918306           0.7046418360207221 0.7303791626930807 1.0000   
         C         C         1.0       0.06588864818689211           0.7003051371385909 0.7522228841903235 1.0000   
         C         C         1.0       0.06711345427406279           0.6869099439050861 0.7904831408929426 1.0000   
         C         C         1.0       0.01712841439057522           0.703031040436353  0.724425690022898  1.0000   
         C         C         1.0       0.9970884936059461  0.6717787109317293  0.580525787822042  1.0000   
         C         C         1.0       0.9885378079962995  0.6859798655124625  0.5949761450018839 1.0000   
         C         C         1.0       0.9946039945131135  0.6957821039367633  0.6411123395771342 1.0000   
         C         C         1.0       0.009368351910963524          0.6921159803994114 0.6709256286875825 1.0000   
         C         C         1.0       0.018174308333317013          0.6768374448017306 0.6528229020199261 1.0000   
         C         C         1.0       0.011272580192430048          0.6670200110684021 0.6088974344969453 1.0000   
         C         C         1.0       0.017465467261576828          0.723269513219964  0.7067080223584572 1.0000   
         C         C         1.0       0.010229800279009327          0.7368884562879052 0.7359922904489837 1.0000   
         C         C         1.0       0.011279873394908213          0.7536583352150179 0.7172953076024853 1.0000   
         C         C         1.0       0.0208634008141122  0.7573593762236983  0.6683168478264067 1.0000   
         C         C         1.0       0.027432441789474016          0.7443447664539778 0.6362322679359536 1.0000   
         C         C         1.0       0.024416134690572244          0.7276221834693407 0.651549753753843  1.0000   
         C         C         1.0       0.9871068121834843  0.694404538454829   0.7786282020576444 1.0000   
         C         C         1.0       0.977699198970907   0.6927931397017165  0.8263002641214231 1.0000   
         C         C         1.0       0.9830264822023702  0.70045009036141    0.8787694865134819 1.0000   
         C         C         1.0       0.9984731028564857  0.7096816440087802  0.877720361767327  1.0000   
         C         C         1.0       0.009300057927588146          0.7080054135996803 0.8322433590005534 1.0000   
         C         C         1.0       0.004008271258849616          0.7014985919513217 0.7790106400031717 1.0000   
         H         H         1.0       0.08815629107783862           0.6736052828870523 0.9498282729395254 1.0000   
         H         H         1.0       0.08490151825985692           0.6566911508243268 0.7709950864174617 1.0000   
         H         H         1.0       0.09554777894641608           0.6305173291521593 0.7957268907148406 1.0000   
         H         H         1.0       0.10055149466391855           0.6439054411516745 0.973342686703352  1.0000   
         H         H         1.0       0.09960941554734948           0.6814069353699808 0.7268726736781713 1.0000   
         H         H         1.0       0.1270986864424375  0.6929710005493883  0.6932327439680216 1.0000   
         H         H         1.0       0.13785673330981374           0.713647500414948  0.8571417580046212 1.0000   
         H         H         1.0       0.11091188711352729           0.70273184251362   0.8977480255237609 1.0000   
         H         H         1.0       0.05328698423221012           0.666269916920148  0.8323305058102658 1.0000   
         H         H         1.0       0.02558478621496385           0.674321418209787  0.785236844188807  1.0000   
         H         H         1.0       0.04978852923036836           0.7153351822015822 0.7010461678239911 1.0000   
         H         H         1.0       0.0761519654681928  0.7087979092035764  0.7370636363954249 1.0000   
         H         H         1.0       0.976184373053112   0.6879280053717155  0.5719048486228141 1.0000   
         H         H         1.0       0.9865306228112838  0.7051788320969143  0.6573371914879061 1.0000   
         H         H         1.0       0.028737766628476935          0.6710407355404043 0.678277177801293  1.0000   
         H         H         1.0       0.016001624002380588          0.6546079493908301 0.6037946492382261 1.0000   
         H         H         1.0       0.0035160456652891803         0.7348021115079614 0.7725422791135296 1.0000   
         H         H         1.0       0.005525094610599801          0.7648342905378025 0.741102874919579  1.0000   
         H         H         1.0       0.03305688225413106           0.7479017602309892 0.5935840089688813 1.0000   
         H         H         1.0       0.027939686082961046          0.7181533478087578 0.6233480798705784 1.0000   
         H         H         1.0       0.9807228044725922  0.689044905423952   0.740464337345127  1.0000   
         H         H         1.0       0.9645190828336241  0.6882769769203685  0.8161046901171964 1.0000   
         H         H         1.0       0.002068292825859963          0.7156254124006217 0.9193737332877157 1.0000   
         H         H         1.0       0.02157579212020022           0.7145156119992436 0.8330705986351705 1.0000   
         C         C         1.0       0.1163567493292821  0.7000857481345387  0.30344753656864293          1.0000   
         C         C         1.0       0.13297502661773125           0.7047616763987881 0.3195717496009965 1.0000   
         C         C         1.0       0.1447115223337284  0.692012346835815   0.3239293267623598 1.0000   
         C         C         1.0       0.14057976692824264           0.6751052119457581 0.32763397446967407          1.0000   
         C         C         1.0       0.12361898941441112           0.6708249084308898 0.3140445103574331 1.0000   
         C         C         1.0       0.11111478664904295           0.6825934979591465 0.3016580735644858 1.0000   
         H         H         1.0       0.13529959115681436           0.7175679441362509 0.32565276117554254          1.0000   
         H         H         1.0       0.15780123073674246           0.696817325112054  0.3338993508351206 1.0000   
         H         H         1.0       0.12001318894718918           0.6574480011687573 0.3199706486270834 1.0000   
         H         H         1.0       0.09778047241662914           0.6783255605132542 0.29635596828161664          1.0000   
         C         C         1.0       0.1634565715427502  0.629038204513992   0.34709760209283075          1.0000   
         C         C         1.0       0.15479580654657601           0.6421964908809732 0.3207875221335166 1.0000   
         C         C         1.0       0.14852350070860867           0.6396076831167159 0.26470035809636594          1.0000   
         C         C         1.0       0.15086778308263366           0.6238314506647746 0.23820021143075734          1.0000   
         C         C         1.0       0.15805725642584684           0.6102176253251846 0.2669762737675527 1.0000   
         C         C         1.0       0.16582964435044686           0.6135114311067278 0.3206811908055693 1.0000   
         C         C         1.0       0.15355031171343958           0.6609577803216377 0.3492153324430867 1.0000   
         C         C         1.0       0.14716004130743252           0.6597437623375318 0.41502731466440734          1.0000   
         C         C         1.0       0.15274882909241094           0.6727841714943515 0.4519852090979762 1.0000   
         C         C         1.0       0.14824397855627897           0.672689059884753  0.5101632437444458 1.0000   
         C         C         1.0       0.13851762972913395           0.6595496133165967 0.5294842918455814 1.0000   
         C         C         1.0       0.13319321115383906           0.646569596320791  0.4929004052359376 1.0000   
         C         C         1.0       0.1353689317099255  0.6473548615073953  0.43589222759784113          1.0000   
         C         C         1.0       0.17926477996247517           0.6703067255094097 0.2886833607605584 1.0000   
         C         C         1.0       0.1970488979338003  0.6690843975850355  0.2745807334749706 1.0000   
         C         C         1.0       0.20910233907674394           0.6632948644632399 0.31531792569030603          1.0000   
         C         C         1.0       0.20323458604075254           0.6613559930012    0.3691351280129632 1.0000   
         C         C         1.0       0.18583259813884806           0.6613281279860448 0.3854161311143979 1.0000   
         C         C         1.0       0.1738021471297052  0.6660233775421028  0.3428167917149117 1.0000   
         C         C         1.0       0.22785223202363497           0.6578973618104892 0.291578186190038  1.0000   
         C         C         1.0       0.21473600195442516           0.602598972853716  0.2927085523667785 1.0000   
         C         C         1.0       0.21197357614442672           0.6130356587535684 0.24651404712933078          1.0000   
         C         C         1.0       0.2162871353442576  0.6295478937399411  0.2483290653313277 1.0000   
         C         C         1.0       0.22523235085015805           0.6370094114886514 0.29236368324663065          1.0000   
         C         C         1.0       0.22892250461761407           0.6259847662941077 0.3386503458742094 1.0000   
         C         C         1.0       0.2253347059169135  0.6085028321336285  0.3377593823446128 1.0000   
         C         C         1.0       0.24265442839066811           0.664432936680471  0.33497232366805557          1.0000   
         C         C         1.0       0.24041158403498294           0.6805135709123112 0.35906489046301077          1.0000   
         C         C         1.0       0.25341348759973364           0.6882870490623765 0.38979131274219675          1.0000   
         C         C         1.0       0.268905944826244   0.6802216956483235  0.39315657005918087          1.0000   
         C         C         1.0       0.2710200973369575  0.6642962759323979  0.3743283169959115 1.0000   
         C         C         1.0       0.2579397911272018  0.6571740897264072  0.34139783763492415          1.0000   
         C         C         1.0       0.24585314601876518           0.6585120166594634 0.19680909164993543          1.0000   
         C         C         1.0       0.25371658285282217           0.6669080596684835 0.15169276942015109          1.0000   
         C         C         1.0       0.25130974671214673           0.6840791999004984 0.1433504717025924 1.0000   
         C         C         1.0       0.23951102486079778           0.6927456563078259 0.17535813521282195          1.0000   
         C         C         1.0       0.23162202132830734           0.6852580209323319 0.2226809705874978 1.0000   
         C         C         1.0       0.23458560018717756           0.6675177849538426 0.23352581011628332          1.0000   
         H         H         1.0       0.16912391931513757           0.6302760126468141 0.3900536329115832 1.0000   
         H         H         1.0       0.14314432612750216           0.6495553488082305 0.2396719409068917 1.0000   
         H         H         1.0       0.1455532059092625  0.6214429622637948  0.19570919235752943          1.0000   
         H         H         1.0       0.17029676650015999           0.6035472227521385 0.34826564387192915          1.0000   
         H         H         1.0       0.16079109535181182           0.6819536436252462 0.4357877187503718 1.0000   
         H         H         1.0       0.15279154173475648           0.68273710122463   0.5411838695531507 1.0000   
         H         H         1.0       0.12627594459929492           0.6364077572184217 0.5120886950777759 1.0000   
         H         H         1.0       0.13122863835583207           0.6373748776435361 0.4101647137253235 1.0000   
         H         H         1.0       0.1703057129088442  0.6734705138273471  0.25352630128435455          1.0000   
         H         H         1.0       0.19965190190454468           0.6690938921248213 0.22943903034440544          1.0000   
         H         H         1.0       0.21245187349152864           0.6569036253310637 0.4022151482352611 1.0000   
         H         H         1.0       0.1811042558196079  0.6547675646398394  0.4245968639905946 1.0000   
         H         H         1.0       0.2045929884399901  0.6084824304484625  0.20839813094515525          1.0000   
         H         H         1.0       0.21253878873533263           0.6374359561894488 0.21172736641579304          1.0000   
         H         H         1.0       0.23612337340276188           0.6304085732006592 0.3743144264038485 1.0000   
         H         H         1.0       0.2292865261455594  0.5987560509923168  0.37214606007115714          1.0000   
         H         H         1.0       0.22849257809851825           0.6876043750457245 0.3550341153861738 1.0000   
         H         H         1.0       0.2508118978541969  0.7003498812691408  0.4119194313407153 1.0000   
         H         H         1.0       0.2828859874691346  0.6576115350188468  0.3770477190666165 1.0000   
         H         H         1.0       0.26010169686865336           0.6449458832671001 0.3187122149538882 1.0000   
         H         H         1.0       0.24915058987988215           0.6456974792987907 0.20827076118075727          1.0000   
         H         H         1.0       0.26106351063681393           0.659382228676757  0.1180688416957516 1.0000   
         H         H         1.0       0.23783352785921244           0.7067272865070148 0.17108645866916516          1.0000   
         H         H         1.0       0.22230560676887734           0.6920817859799209 0.24711274086291526          1.0000   
         C         C         1.0       0.1712612706134083  0.6946579874846586  0.7795091828296863 1.0000   
         C         C         1.0       0.1825514061505936  0.7028538699654028  0.8156324443614653 1.0000   
         C         C         1.0       0.19260642114903997           0.6941745902868383 0.8541112726003235 1.0000   
         C         C         1.0       0.191297697781477   0.676692611892699   0.8582138406435219 1.0000   
         C         C         1.0       0.1774084905796849  0.6693129047481506  0.8304867683098133 1.0000   
         C         C         1.0       0.16846336904921475           0.678255059017481  0.7883450696504488 1.0000   
         H         H         1.0       0.18515898147416043           0.7161558001565997 0.8098159615055986 1.0000   
         H         H         1.0       0.20302387119046864           0.7022240382823973 0.8725182070404813 1.0000   
         H         H         1.0       0.17546814093446667           0.6556206689903245 0.8248012758174856 1.0000   
         H         H         1.0       0.1585830684818277  0.6720353253163533  0.7634897760403727 1.0000   
         C         C         1.0       0.18562768546024355           0.6455622686505598 0.9418628298020574 1.0000   
         C         C         1.0       0.20227574042181504           0.6488060165690912 0.9203660677425931 1.0000   
         C         C         1.0       0.21468354218479102           0.6362597227594162 0.9329325021410869 1.0000   
         C         C         1.0       0.20957691987755334           0.6214992978679797 0.9613532997864017 1.0000   
         C         C         1.0       0.193132487233448   0.6188024252841602  0.9818581099214304 1.0000   
         C         C         1.0       0.1817687418428878  0.6317856787523093  0.9783629600774512 1.0000   
         C         C         1.0       0.20672515410445583           0.6651589159495935 0.8818764316461589 1.0000   
         C         C         1.0       0.21820404115120023           0.6752155868066507 0.9297481238403614 1.0000   
         C         C         1.0       0.23615520436588147           0.6734470112100777 0.9278444344701217 1.0000   
         C         C         1.0       0.2456933787793011  0.6813187349875817  0.9687837159274723 1.0000   
         C         C         1.0       0.23829425949778485           0.6917436544688425 0.008320189687187618         1.0000   
         C         C         1.0       0.2205628024988451  0.6923117932727261  0.012303491055527083         1.0000   
         C         C         1.0       0.21072316902785562           0.6841731463910145 0.9744005690276138 1.0000   
         C         C         1.0       0.2120646550668044  0.6466635342718098  0.7905099503678156 1.0000   
         C         C         1.0       0.21642737707410667           0.6454525577302849 0.7315250673832553 1.0000   
         C         C         1.0       0.22462082988939458           0.6595866208778698 0.7019382934920737 1.0000   
         C         C         1.0       0.2307852829958355  0.6726722032288911  0.7388807025305218 1.0000   
         C         C         1.0       0.22529547094147184           0.673981807968776  0.7932330943523243 1.0000   
         C         C         1.0       0.2154328636968807  0.6616244180131899  0.8212092407831646 1.0000   
         C         C         1.0       0.22225829299743363           0.6606794558213241 0.6324551670479137 1.0000   
         C         C         1.0       0.2588828666074624  0.6266814940035614  0.5404205380220145 1.0000   
         C         C         1.0       0.24509700388103053           0.6336795737561485 0.5107791336586188 1.0000   
         C         C         1.0       0.2335170158777698  0.6439017286611387  0.54043381154434   1.0000   
         C         C         1.0       0.23540885021036004           0.6473412492165296 0.5988621473903702 1.0000   
         C         C         1.0       0.24907487770908665           0.6406508195423801 0.6274393433106477 1.0000   
         C         C         1.0       0.26080383807435004           0.630249510765714  0.5991624207693383 1.0000   
         C         C         1.0       0.2276495385441569  0.6785798696882577  0.6066065563397309 1.0000   
         C         C         1.0       0.2438215591039229  0.6846325955075381  0.6172096849269789 1.0000   
         C         C         1.0       0.2502113828092638  0.6994426256954667  0.5937134829403536 1.0000   
         C         C         1.0       0.23827878032531807           0.7100053434470579 0.566688423002655  1.0000   
         C         C         1.0       0.2222592022060528  0.7035614174192771  0.5517230623519566 1.0000   
         C         C         1.0       0.2168819665722316  0.6875893859932182  0.5684649082361538 1.0000   
         C         C         1.0       0.18955646882529723           0.6677380736518904 0.6458179600722572 1.0000   
         C         C         1.0       0.17247330021008378           0.6631921394831239 0.6485684915504365 1.0000   
         C         C         1.0       0.16626607617927996           0.6486597619911524 0.6219415526931319 1.0000   
         C         C         1.0       0.1783738408797031  0.6374255146681251  0.6000643388218588 1.0000   
         C         C         1.0       0.19606788426476446           0.6411675557944887 0.6028835382204756 1.0000   
         C         C         1.0       0.20232977495820814           0.6566864707375382 0.6231664719837248 1.0000   
         H         H         1.0       0.17546557777065924           0.6543471642677638 0.934476015235506  1.0000   
         H         H         1.0       0.22855478275486976           0.6372810238559055 0.9214107229287886 1.0000   
         H         H         1.0       0.21929292789098803           0.6119845954189829 0.9718137995187642 1.0000   
         H         H         1.0       0.16874862003889834           0.6300447377767711 0.9949102354930713 1.0000   
         H         H         1.0       0.24163892365658496           0.6658861126877729 0.8940257493469171 1.0000   
         H         H         1.0       0.25936788011105955           0.6792142430680688 0.9691391175998219 1.0000   
         H         H         1.0       0.21424075224610703           0.6991913685688486 0.04643409832710388          1.0000   
         H         H         1.0       0.19669394217309202           0.6836038409473625 0.9803392187427526 1.0000   
         H         H         1.0       0.20333850179559496           0.6373686677848107 0.8098842240561159 1.0000   
         H         H         1.0       0.21262533255165306           0.6352542302190611 0.704826008629661  1.0000   
         H         H         1.0       0.23642862926445457           0.6841365060312985 0.7209595016740982 1.0000   
         H         H         1.0       0.23029176784506458           0.6839480065450454 0.8158616456479871 1.0000   
         H         H         1.0       0.24620025390975683           0.6319259731239705 0.4654270475537252 1.0000   
         H         H         1.0       0.22322976128253255           0.6492921784761728 0.5161342572918008 1.0000   
         H         H         1.0       0.2517972216215867  0.6450214153700913  0.6699139954057141 1.0000   
         H         H         1.0       0.27182392706322694           0.6257991928967389 0.6258398150979684 1.0000   
         H         H         1.0       0.2530311105575515  0.6777430687933612  0.6459158528398352 1.0000   
         H         H         1.0       0.26281102488283253           0.7025148659969482 0.6021316306868338 1.0000   
         H         H         1.0       0.21318708427953378           0.7105896911434437 0.5264040272273428 1.0000   
         H         H         1.0       0.20527430857792936           0.6818825377885459 0.5488033766955174 1.0000   
         H         H         1.0       0.19297955082940402           0.6799979649178304 0.6700906858685449 1.0000   
         H         H         1.0       0.1632959574051798  0.6700055077183511  0.6733342466442682 1.0000   
         H         H         1.0       0.1741586647750158  0.6251030402940364  0.5851414654677547 1.0000   
         H         H         1.0       0.20441721839060056           0.6317785081538798 0.5844953572259572 1.0000   
         C         C         1.0       0.09278277990476602           0.5646722864849357 0.4161868786777817 1.0000   
         C         C         1.0       0.08005834160071368           0.559629406368025  0.4528135605868679 1.0000   
         C         C         1.0       0.07457513811326422           0.5695942532735518 0.4994083294187157 1.0000   
         C         C         1.0       0.07970962899346712           0.5865177493775853 0.5028320812578378 1.0000   
         C         C         1.0       0.0935062493145764  0.5912985288581841  0.46902499856035945          1.0000   
         C         C         1.0       0.0989004867036436  0.5811164586000479  0.42565996880483903          1.0000   
         H         H         1.0       0.07491091902659197           0.5469060493054485 0.44375498463900015          1.0000   
         H         H         1.0       0.06529644987312921           0.5656060360511393 0.5310461670697184 1.0000   
         H         H         1.0       0.09907369311956438           0.6040378572219769 0.4772177106486251 1.0000   
         H         H         1.0       0.1088319187165876  0.5864947912080358  0.39934418860386695          1.0000   
         C         C         1.0       0.06320208810405892           0.6320631962606251 0.5619610397628338 1.0000   
         C         C         1.0       0.06744513203408697           0.618746594946239  0.5245412314344493 1.0000   
         C         C         1.0       0.06596220658955354           0.6217461273841158 0.46609704928405493          1.0000   
         C         C         1.0       0.06261330209840743           0.6377303476461182 0.4452289327246867 1.0000   
         C         C         1.0       0.0577470672438436  0.6500268763730757  0.4823735544374617 1.0000   
         C         C         1.0       0.057362426485241924          0.6474348107651672 0.541774127349256  1.0000   
         C         C         1.0       0.07174368379868579           0.5998473513499456 0.5485705906421046 1.0000   
         C         C         1.0       0.08533555478310695           0.5986924546720876 0.6003216128806523 1.0000   
         C         C         1.0       0.09791389153319496           0.6120962486348341 0.6080726062492662 1.0000   
         C         C         1.0       0.1098094514365493  0.6108959680691453  0.6495371227980711 1.0000   
         C         C         1.0       0.11167529655071529           0.5957556399155198 0.6805060933687704 1.0000   
         C         C         1.0       0.1000796823293757  0.5824202935843815  0.673623369725816  1.0000   
         C         C         1.0       0.08749546161723032           0.5839157662687773 0.6329947720745357 1.0000   
         C         C         1.0       0.03995920494240335           0.5911476916377616 0.5243959178517125 1.0000   
         C         C         1.0       0.0234560640175161  0.5855760767638234  0.5372989731078552 1.0000   
         C         C         1.0       0.01780952639663025           0.5850882641327123 0.5929040451943479 1.0000   
         C         C         1.0       0.028811219150908673          0.5917122609955814 0.6338933369137321 1.0000   
         C         C         1.0       0.04545413955415056           0.5952261603384169 0.6231473615802392 1.0000   
         C         C         1.0       0.05194356233707609           0.5951882705417579 0.5659929116507122 1.0000   
         C         C         1.0       0.9984900570428282  0.5811419771725495  0.6079031135734638 1.0000   
         C         C         1.0       0.9795320953041378  0.6321720166894058  0.5653592574970067 1.0000   
         C         C         1.0       0.9789545344171652  0.6189180725777687  0.5246296776988267 1.0000   
         C         C         1.0       0.9847485175543359  0.6030900675583979  0.5402589335630363 1.0000   
         C         C         1.0       0.9905326334779064  0.5994017513848522  0.5954144757784696 1.0000   
         C         C         1.0       0.9908329170992292  0.6130864532296598  0.6338278420604457 1.0000   
         C         C         1.0       0.9855121533606338  0.6287154880192272  0.6201589206422482 1.0000   
         C         C         1.0       0.9934492794059745  0.5756500354541366  0.6699092767304674 1.0000   
         C         C         1.0       0.003960019123372627          0.563816600195367  0.6973509361308745 1.0000   
         C         C         1.0       0.00014943936461842           0.556754287434298  0.7506604484330691 1.0000   
         C         C         1.0       0.984836032442574   0.5602054813153476  0.7750865045745564 1.0000   
         C         C         1.0       0.9733893845184439  0.5707462707709076  0.7465023056543741 1.0000   
         C         C         1.0       0.9775369174195782  0.5790878453868049  0.6957632927160997 1.0000   
         C         C         1.0       0.9733213264980235  0.5642202927197367  0.5544372614964233 1.0000   
         C         C         1.0       0.9684605838066055  0.5500080395615411  0.5219594743479633 1.0000   
         C         C         1.0       0.98051122122644    0.5384601981692123  0.5039106448563292 1.0000   
         C         C         1.0       0.9973634750973532  0.5387599814455628  0.5215636453748789 1.0000   
         C         C         1.0       0.0025744343222795507         0.5520417735230679 0.5539508960221733 1.0000   
         C         C         1.0       0.9911753360985739  0.5650802157394419  0.5707669500768904 1.0000   
         H         H         1.0       0.06241200778005496           0.6284973640275215 0.6080355807996226 1.0000   
         H         H         1.0       0.06906992097364717           0.6132574993450401 0.4334496516515084 1.0000   
         H         H         1.0       0.06140614151205326           0.6403623548977526 0.3979013506910858 1.0000   
         H         H         1.0       0.05324156550136716           0.6575423647789449 0.5724208612118119 1.0000   
         H         H         1.0       0.09745681341030354           0.6223499529595473 0.5765890520038016 1.0000   
         H         H         1.0       0.12007090306749313           0.6212034260841752 0.6572081354219768 1.0000   
         H         H         1.0       0.10138081642428798           0.5706049668962987 0.6971950830650411 1.0000   
         H         H         1.0       0.077985386082986   0.5731227336362823  0.6215014272141058 1.0000   
         H         H         1.0       0.04379592449288294           0.5909769349451357 0.48152061471266333          1.0000   
         H         H         1.0       0.01605542118446479           0.5831871991707089 0.5001528755641506 1.0000   
         H         H         1.0       0.024129184151710836          0.5950317004058074 0.6742947525320958 1.0000   
         H         H         1.0       0.05377454969678386           0.598930842582874  0.6582877894977023 1.0000   
         H         H         1.0       0.974311453644133   0.6195499917295209  0.48194111830629477          1.0000   
         H         H         1.0       0.9836161594650801  0.593080008760731   0.5081611881430291 1.0000   
         H         H         1.0       0.9948382874458267  0.6123289633172948  0.6785735089897786 1.0000   
         H         H         1.0       0.9877607411459889  0.6393105593831013  0.6482997340151271 1.0000   
         H         H         1.0       0.01587840377536809           0.5595866592848523 0.6779170776464946 1.0000   
         H         H         1.0       0.009251731992886647          0.5486703238566668 0.7751903589369301 1.0000   
         H         H         1.0       0.9606369166289414  0.573523491819606   0.767622118927434  1.0000   
         H         H         1.0       0.9690493017640923  0.5878775786660159  0.6738407179578992 1.0000   
         H         H         1.0       0.963907647113596   0.5718646182190376  0.5713174805238412 1.0000   
         H         H         1.0       0.9554246316018796  0.5496014148648007  0.5109216470997725 1.0000   
         H         H         1.0       0.004543615621381836          0.5288381643539138 0.5055179127489121 1.0000   
         H         H         1.0       0.016160152789557847          0.5532288312218885 0.567657048641676  1.0000   
         C         C         1.0       0.9976701151113141  0.5654223362396195  0.9169425204947497 1.0000   
         C         C         1.0       0.005731198499522083          0.5508092294423049 0.9376973673650033 1.0000   
         C         C         1.0       0.02014792414933675           0.5513608086081442 0.9715740662415832 1.0000   
         C         C         1.0       0.028860606782822762          0.5673716093894591 0.9772821393506537 1.0000   
         C         C         1.0       0.02073582252647377           0.5817366888663575 0.9591239369852199 1.0000   
         C         C         1.0       0.005877687183346358          0.5812255055879034 0.9273275191256023 1.0000   
         H         H         1.0       0.9994485622383543  0.5384468056868869  0.9287914808071392 1.0000   
         H         H         1.0       0.02466590652917855           0.539363872528406  0.9915384690063956 1.0000   
         H         H         1.0       0.028228498349924136          0.5929341943986367 0.9636646927931783 1.0000   
         H         H         1.0       2.6767973139607548e-05        0.593354815790442  0.9166128422374304 1.0000   
         C         C         1.0       0.05875236660431993           0.5870405527408062 0.9170073447231922 1.0000   
         C         C         1.0       0.06073381980848991           0.5814724439722648 0.9741641276703449 1.0000   
         C         C         1.0       0.07542007767813086           0.5848921107677196 0.0029462166577234328        1.0000   
         C         C         1.0       0.08857888523746693           0.5929600097716545 0.9764869605616434 1.0000   
         C         C         1.0       0.08748971576202136           0.5983828990261397 0.918682511956725  1.0000   
         C         C         1.0       0.07177543280980903           0.5964536772796117 0.8915124430757554 1.0000   
         C         C         1.0       0.04751511067331493           0.5679370971644118 0.0053913529823002015        1.0000   
         C         C         1.0       0.05817595465456904           0.55147677650672   0.9983334162413583 1.0000   
         C         C         1.0       0.0669251079857891  0.5419453605494596  0.0430025755389678 1.0000   
         C         C         1.0       0.07396562528762263           0.5264223086968087 0.03445861226397562          1.0000   
         C         C         1.0       0.07586416206781688           0.5209878239828386 0.9775033343518532 1.0000   
         C         C         1.0       0.06978726668332125           0.5306924786823692 0.9310841128043532 1.0000   
         C         C         1.0       0.06098286581921286           0.5456698182974442 0.9422886429369773 1.0000   
         C         C         1.0       0.04274334301982052           0.5884382409683637 0.09431890721698921          1.0000   
         C         C         1.0       0.038234386549772514          0.5910240586398232 0.15071403831129193          1.0000   
         C         C         1.0       0.03039977733250021           0.5778951071783729 0.18258211267626145          1.0000   
         C         C         1.0       0.028958455104188152          0.5620222653408503 0.15821572304273546          1.0000   
         C         C         1.0       0.03441349018286588           0.5593530065470964 0.10233271509247377          1.0000   
         C         C         1.0       0.04135780314410353           0.5721666519088278 0.07058005546445445          1.0000   
         C         C         1.0       0.02409176418226666           0.5798523787742264 0.24869793472904833          1.0000   
         C         C         1.0       0.005044605845624384          0.6313596240992964 0.28913025216137234          1.0000   
         C         C         1.0       0.00204002402025405           0.6236788945985965 0.23641572525568333          1.0000   
         C         C         1.0       0.00807275897559423           0.6073303925532181 0.22506103165729163          1.0000   
         C         C         1.0       0.018100357385242072          0.5987237799382961 0.26383586138923   1.0000   
         C         C         1.0       0.021481990648010374          0.60684335112836   0.31554334037880527          1.0000   
         C         C         1.0       0.015160531070169236          0.6225640591806479 0.328385345526232  1.0000   
         C         C         1.0       0.042953409024626854          0.5742111933965763 0.2719850854815399 1.0000   
         C         C         1.0       0.04627818579132925           0.557311341996199  0.2831515924034615 1.0000   
         C         C         1.0       0.0633958748669452  0.5518796380601335  0.2938864994772186 1.0000   
         C         C         1.0       0.0763120730063569  0.5630656909861601  0.294772575266591  1.0000   
         C         C         1.0       0.07355023765291069           0.5798974686017055 0.2827644086918094 1.0000   
         C         C         1.0       0.05697648793460175           0.5854606506967504 0.2708410169425203 1.0000   
         C         C         1.0       0.005667818253791479          0.5625528449675186 0.32254386829660153          1.0000   
         C         C         1.0       0.9913991101922888  0.5530585262290074  0.33916079231625895          1.0000   
         C         C         1.0       0.9788433762381743  0.5496387359745115  0.2986552583013926 1.0000   
         C         C         1.0       0.9802908160470412  0.5567108613102654  0.24356009551847024          1.0000   
         C         C         1.0       0.9942190612827311  0.5669393213562326  0.23167036444422862          1.0000   
         C         C         1.0       0.007657985854136351          0.5691669621827675 0.26929114643527674          1.0000   
         H         H         1.0       0.04830322895603878           0.5827680607031948 0.888807425324227  1.0000   
         H         H         1.0       0.07763395937336548           0.5795650971284875 0.04599944736847328          1.0000   
         H         H         1.0       0.09966930974674404           0.5959380623030701 0.0007146799755333166        1.0000   
         H         H         1.0       0.06872697252372428           0.600187304203914  0.8480736936612067 1.0000   
         H         H         1.0       0.06415314630212321           0.5459789759060892 0.08509685964476188          1.0000   
         H         H         1.0       0.07833342574564894           0.5195060568162151 0.0697262893070183 1.0000   
         H         H         1.0       0.07060573135070602           0.5264725102961442 0.8872258221837485 1.0000   
         H         H         1.0       0.054735271169191524          0.5510760014821735 0.9045407953709168 1.0000   
         H         H         1.0       0.04537366380714891           0.5998289166869968 0.06808793883138908          1.0000   
         H         H         1.0       0.037493300229391124          0.604009869683163  0.16437297281515217          1.0000   
         H         H         1.0       0.024077275223638894          0.5510195837016042 0.1815738493913257 1.0000   
         H         H         1.0       0.03101789187228965           0.5474174036646696 0.0800042285231366 1.0000   
         H         H         1.0       0.994443450598325   0.6312474905482159  0.2083382677105916 1.0000   
         H         H         1.0       0.004176625388450539          0.6019041899857202 0.18334919470472322          1.0000   
         H         H         1.0       0.026940016594072524          0.5996188237013951 0.3529705388961186 1.0000   
         H         H         1.0       0.01661605406982747           0.627641157040323  0.370085113437044  1.0000   
         H         H         1.0       0.03691336799126388           0.5473331592954994 0.2821636278844508 1.0000   
         H         H         1.0       0.06452134064306647           0.5387117507548855 0.30624105240260474          1.0000   
         H         H         1.0       0.0822215477490782  0.5896374365660312  0.2756245695634969 1.0000   
         H         H         1.0       0.055852037403104626          0.5988736895993462 0.26100443744250806          1.0000   
         H         H         1.0       0.01580164954787966           0.5647848541220192 0.352490109895645  1.0000   
         H         H         1.0       0.9902315588426516  0.5492025047783919  0.3845698647244058 1.0000   
         H         H         1.0       0.9690011973726139  0.5551474436448731  0.21503293243050958          1.0000   
         H         H         1.0       0.9943831122101553  0.5737244836376848  0.190283567835128  1.0000   
         C         C         1.0       0.14705123721008534           0.5825732510474838 0.6409181379905284 1.0000   
         C         C         1.0       0.14674141755973732           0.5648382383306424 0.6456581640694344 1.0000   
         C         C         1.0       0.149383160780271   0.5553064798559677  0.5968496763624874 1.0000   
         C         C         1.0       0.15416454394900822           0.5633877297523769 0.5455506929843881 1.0000   
         C         C         1.0       0.15549719401157602           0.5805412189718332 0.5437158364052724 1.0000   
         C         C         1.0       0.15131829216136458           0.5903777478527835 0.5907224487288962 1.0000   
         H         H         1.0       0.14381057719493762           0.5595965275986764 0.688411434154753  1.0000   
         H         H         1.0       0.14914093808446055           0.5414145611263519 0.605361523315563  1.0000   
         H         H         1.0       0.15796645986965493           0.5865086222526842 0.5036205343402207 1.0000   
         H         H         1.0       0.15062790059205902           0.6038235075979469 0.5899466948573775 1.0000   
         C         C         1.0       0.14421837578406066           0.5703949823705906 0.41470576875403137          1.0000   
         C         C         1.0       0.15826048435125356           0.5606881975913175 0.4276469763195946 1.0000   
         C         C         1.0       0.16964974722576565           0.5574209498957444 0.38486712258189343          1.0000   
         C         C         1.0       0.16676261662544253           0.5630641813152653 0.33010218029622446          1.0000   
         C         C         1.0       0.15220094727076247           0.5720466912998483 0.31579862164491307          1.0000   
         C         C         1.0       0.14056129863310074           0.5752916583662314 0.3615577216453686 1.0000   
         C         C         1.0       0.16074304913686766           0.5525068907981259 0.48966762457488877          1.0000   
         C         C         1.0       0.15186456192411654           0.5346883502180338 0.4800293639636256 1.0000   
         C         C         1.0       0.16110165377552355           0.5202719878901538 0.46557055827187865          1.0000   
         C         C         1.0       0.1524250916184949  0.5058973781149534  0.45307629006616357          1.0000   
         C         C         1.0       0.1347339090640212  0.5051759570100209  0.450350076502402  1.0000   
         C         C         1.0       0.12535405717548553           0.519342655501974  0.4680218807140357 1.0000   
         C         C         1.0       0.13404143118838677           0.5343280735500765 0.4846472356159864 1.0000   
         C         C         1.0       0.19321124192163217           0.5642352857305548 0.49529123795796465          1.0000   
         C         C         1.0       0.21009897629281313           0.561899065650133  0.5128948195399536 1.0000   
         C         C         1.0       0.21459891951570342           0.547199482773971  0.5439162893357173 1.0000   
         C         C         1.0       0.20130156903135643           0.5362608415051736 0.561303025952637  1.0000   
         C         C         1.0       0.18517798278074216           0.5385071463732093 0.5452334741082999 1.0000   
         C         C         1.0       0.18102409499604413           0.5516292948898843 0.5095018239822462 1.0000   
         C         C         1.0       0.23394379510231159           0.5427145584463544 0.5652370682872351 1.0000   
         C         C         1.0       0.27027991606337254           0.586553067630692  0.5443122933696634 1.0000   
         C         C         1.0       0.2649485991050338  0.5823132657955216  0.5992202747460627 1.0000   
         C         C         1.0       0.2538590413924555  0.5677700953086057  0.6049665022898687 1.0000   
         C         C         1.0       0.24752602800322032           0.5590243246044557 0.558008208137513  1.0000   
         C         C         1.0       0.2520821711671383  0.5646136793887984  0.504335504688386  1.0000   
         C         C         1.0       0.2633724137026385  0.5778684487700829  0.4974612153518646 1.0000   
         C         C         1.0       0.24178778506563037           0.5266533953472432 0.5253398616160884 1.0000   
         C         C         1.0       0.23199679734457923           0.5173484245172585 0.48491464442676485          1.0000   
         C         C         1.0       0.23933257052755794           0.5043598144168319 0.4547692677959215 1.0000   
         C         C         1.0       0.2562023772780802  0.49899919820227634           0.46711130538272216          1.0000   
         C         C         1.0       0.2661007663536742  0.5078651380182454  0.5049347764145671 1.0000   
         C         C         1.0       0.2592049635378802  0.5232062608167991  0.5295306194255305 1.0000   
         C         C         1.0       0.24112999646619285           0.5218232044503681 0.6526141709095038 1.0000   
         C         C         1.0       0.23923023626621    0.5170951255920974  0.7108263106660333 1.0000   
         C         C         1.0       0.22912142313340705           0.5270967650268356 0.7463287620542236 1.0000   
         C         C         1.0       0.2230547417950568  0.5424960177286109  0.7279770549033354 1.0000   
         C         C         1.0       0.22454969152487209           0.5465781137435619 0.6712626140591205 1.0000   
         C         C         1.0       0.23389169337998242           0.5365708504265497 0.6323724801353596 1.0000   
         H         H         1.0       0.1347355698794416  0.573648559956604   0.4459994362633585 1.0000   
         H         H         1.0       0.18165495964848252           0.5494915592755069 0.39311565341492827          1.0000   
         H         H         1.0       0.17638306878682491           0.5599992455021939 0.2959054476826978 1.0000   
         H         H         1.0       0.12922589740695062           0.5827219802921528 0.3490423858343556 1.0000   
         H         H         1.0       0.17484703452797495           0.5200310833336292 0.45154477783625663          1.0000   
         H         H         1.0       0.1597354068511859  0.4954394067409052  0.4353630172228909 1.0000   
         H         H         1.0       0.11194240054678818           0.52015787141178   0.46298119501240625          1.0000   
         H         H         1.0       0.12801069964758685           0.5464736468216599 0.4912246753772699 1.0000   
         H         H         1.0       0.18929678623008095           0.5747953141918668 0.4691136838436773 1.0000   
         H         H         1.0       0.21963903289495829           0.5706318208421679 0.500332731570009  1.0000   
         H         H         1.0       0.20341148109164983           0.5253297008488303 0.5883910089219688 1.0000   
         H         H         1.0       0.17586146387433832           0.530317368138153  0.562778451459602  1.0000   
         H         H         1.0       0.2723180832584029  0.5880591427269783  0.6336451839801107 1.0000   
         H         H         1.0       0.2511738355565506  0.5633152982711515  0.6490840726081756 1.0000   
         H         H         1.0       0.24738999081942278           0.5583185440525965 0.46525522539887076          1.0000   
         H         H         1.0       0.2670489472782344  0.5809235237314638  0.45258182175481554          1.0000   
         H         H         1.0       0.21822143786714357           0.519913588988141  0.4756113354039854 1.0000   
         H         H         1.0       0.23146861766637084           0.49858766825716944          0.4198003258499954 1.0000   
         H         H         1.0       0.27951831180790976           0.5037079428139543 0.5129559857744719 1.0000   
         H         H         1.0       0.26659963104367124           0.5301869318983846 0.5626611660441625 1.0000   
         H         H         1.0       0.2483537437075532  0.5132667793671408  0.6258088126162283 1.0000   
         H         H         1.0       0.24723451188318055           0.5073633432098441 0.7301953853314703 1.0000   
         H         H         1.0       0.21552142323510493           0.5512206146217425 0.7523134330855754 1.0000   
         H         H         1.0       0.2178646042593218  0.5575304009771048  0.6540012160443678 1.0000   
         C         C         1.0       0.11583540260925008           0.5003110951900004 0.002380257546906961         1.0000   
         C         C         1.0       0.1276594012784237  0.48858094134258484           0.9819308312021923 1.0000   
         C         C         1.0       0.14449514892268778           0.4942955861944695 0.9797000320265484 1.0000   
         C         C         1.0       0.14926195448107307           0.511280246645561  0.9931082250077353 1.0000   
         C         C         1.0       0.13712474901023713           0.5219932177211866 0.014173191406976482         1.0000   
         C         C         1.0       0.12076007057521997           0.5171564146565681 0.01850477491946756          1.0000   
         H         H         1.0       0.12306008364143617           0.47627010488526267          0.9713362298457101 1.0000   
         H         H         1.0       0.15419414191655115           0.4840255883298432 0.9685732946187373 1.0000   
         H         H         1.0       0.14118590272967232           0.5346618350816622 0.028747632904088993         1.0000   
         H         H         1.0       0.11143929316399959           0.528004707956002  0.02141987823672653          1.0000   
         C         C         1.0       0.16252515823016744           0.5457587911664665 0.9497155261719243 1.0000   
         C         C         1.0       0.1726641365372902  0.5359984086817063  0.9852658911399959 1.0000   
         C         C         1.0       0.1880264960214255  0.5439088597331057  0.0033732163653279468        1.0000   
         C         C         1.0       0.1912971431208029  0.5603803508279026  0.9936945569326302 1.0000   
         C         C         1.0       0.18055477598121342           0.569480393614774  0.9613793326609298 1.0000   
         C         C         1.0       0.16533807753692278           0.562746100860247  0.9409316954992117 1.0000   
         C         C         1.0       0.16917778584950088           0.5165113972527812 0.9968051894493647 1.0000   
         C         C         1.0       0.18208710282933221           0.5083944621873566 0.9535909416744297 1.0000   
         C         C         1.0       0.19982444209781858           0.5056463134981621 0.9622167652086577 1.0000   
         C         C         1.0       0.2105283513766899  0.503723280868654   0.9167857363535806 1.0000   
         C         C         1.0       0.2039900350804945  0.5036887123326864  0.8616990973056742 1.0000   
         C         C         1.0       0.18643843956675477           0.5049370058169732 0.8531473909093188 1.0000   
         C         C         1.0       0.17581523490007495           0.5062660562679804 0.8965677718054633 1.0000   
         C         C         1.0       0.17000243148320995           0.523593971749068  0.10421765473094324          1.0000   
         C         C         1.0       0.17373875114626805           0.5205245837400592 0.16165456545208912          1.0000   
         C         C         1.0       0.18190651221712167           0.5053501030341107 0.178448707221861  1.0000   
         C         C         1.0       0.1827041351489158  0.4918949184917758  0.13829388607499604          1.0000   
         C         C         1.0       0.17837049841386102           0.4950039692493547 0.08121818204919218          1.0000   
         C         C         1.0       0.17246797111711243           0.5110390511223848 0.062164136895576316         1.0000   
         C         C         1.0       0.1905647301935252  0.5036982946903047  0.24013337299644588          1.0000   
         C         C         1.0       0.21759153929442993           0.5526149953663614 0.27601617246874466          1.0000   
         C         C         1.0       0.20918909730703292           0.5443169514626388 0.3179380118229722 1.0000   
         C         C         1.0       0.19993237002253084           0.5296882863314083 0.30771373661995877          1.0000   
         C         C         1.0       0.2003209326127964  0.5216377903879823  0.2528938362787725 1.0000   
         C         C         1.0       0.20989469573931538           0.5304638036795635 0.21024607822216468          1.0000   
         C         C         1.0       0.21890863825151818           0.545069212613585  0.22221759127286012          1.0000   
         C         C         1.0       0.20559495325999225           0.4915165119531692 0.24847348303676897          1.0000   
         C         C         1.0       0.2190765111635479  0.4904773054239551  0.20771069366595252          1.0000   
         C         C         1.0       0.23396158919537327           0.48165072562499445          0.21876804325252808          1.0000   
         C         C         1.0       0.2368859086451407  0.4740644438041093  0.26926007978187716          1.0000   
         C         C         1.0       0.22524239923039624           0.47594742373571247          0.3109543751758639 1.0000   
         C         C         1.0       0.20977916362867316           0.4844469612053638 0.30243987373403325          1.0000   
         C         C         1.0       0.16557854388717264           0.48388220414530847          0.27762461881523615          1.0000   
         C         C         1.0       0.14960032450152896           0.48069323630849947          0.3010242406263728 1.0000   
         C         C         1.0       0.14016531518294822           0.49394341940751707          0.32229058945220457          1.0000   
         C         C         1.0       0.14622136649389705           0.5104320990638385 0.3151803669262576 1.0000   
         C         C         1.0       0.16245358528331194           0.5135257591106377 0.29076320843988585          1.0000   
         C         C         1.0       0.17264581944248963           0.5002906876752964 0.2718918766545003 1.0000   
         H         H         1.0       0.15377638416075903           0.5387254414799589 0.9237458282109455 1.0000   
         H         H         1.0       0.19790233293054302           0.5370218659271218 0.025651006842889013         1.0000   
         H         H         1.0       0.20317091200692597           0.5650233896644361 0.014420479645182782         1.0000   
         H         H         1.0       0.15634224484867995           0.56832854370971   0.907966612510947  1.0000   
         H         H         1.0       0.20708631956377271           0.5100471332302303 0.9979373325948353 1.0000   
         H         H         1.0       0.2241130243677291  0.5028844999349716  0.9269537063790627 1.0000   
         H         H         1.0       0.18185343982421598           0.5078161225749286 0.8094303257167668 1.0000   
         H         H         1.0       0.16242169812707263           0.5077971052627334 0.889342485540901  1.0000   
         H         H         1.0       0.16606219637334738           0.5365246828329306 0.09785530177810031          1.0000   
         H         H         1.0       0.17388084212020444           0.5322317851860247 0.18648882385863974          1.0000   
         H         H         1.0       0.18693441322732693           0.47926122143796124          0.15097004397745506          1.0000   
         H         H         1.0       0.178971884818668   0.48443922953863855           0.05233613226922551          1.0000   
         H         H         1.0       0.20987931447048946           0.5493649048602843 0.3610606146196764 1.0000   
         H         H         1.0       0.1942567821864322  0.5225772735645079  0.3418994965496709 1.0000   
         H         H         1.0       0.2128103852607058  0.5246841159247877  0.1680055103152458 1.0000   
         H         H         1.0       0.22686011463045944           0.5503584205218779 0.1896199695886187 1.0000   
         H         H         1.0       0.2191001964286269  0.4979020262786813  0.16777930111143347          1.0000   
         H         H         1.0       0.24163263816418878           0.480759335396396  0.18256374579320633          1.0000   
         H         H         1.0       0.22554731300460126           0.47058824258555954          0.3569646736400449 1.0000   
         H         H         1.0       0.20028357542997988           0.48313722615502813          0.33626941954128947          1.0000   
         H         H         1.0       0.17310881102961218           0.47407106318854253          0.2616107552107354 1.0000   
         H         H         1.0       0.14461391619928307           0.46740180273652115          0.308679081003504  1.0000   
         H         H         1.0       0.13955697868958633           0.5214084843140244 0.33359114417169083          1.0000   
         H         H         1.0       0.16466443527460362           0.527118796734063  0.2823236203007781 1.0000   
         C         C         1.0       0.7506110262057266  0.768332564419391   0.06085231732225216          1.0000   
         C         C         1.0       0.7354135043404967  0.7770757252891298  0.06536699086553366          1.0000   
         C         C         1.0       0.7204827988707465  0.7687591435277038  0.07955012697133011          1.0000   
         C         C         1.0       0.7203115231883758  0.7507396824564123  0.08572403957843555          1.0000   
         C         C         1.0       0.7362376196449401  0.742607452998986   0.090230623477487  1.0000   
         C         C         1.0       0.7510824544777178  0.7508453204972978  0.07578519451295795          1.0000   
         H         H         1.0       0.7377480485667343  0.7913560446116109  0.059471553156834826         1.0000   
         H         H         1.0       0.7083014563411619  0.7758473479246013  0.08721818579583385          1.0000   
         H         H         1.0       0.7357308905683347  0.7282911735255476  0.09593256236400172          1.0000   
         H         H         1.0       0.762640863903723   0.7439775302286341  0.07087561314484803          1.0000   
         C         C         1.0       0.7132241792853404  0.7172838318613527  0.023173542891028465         1.0000   
         C         C         1.0       0.7029958944553995  0.7196707120764061  0.0715796319255042 1.0000   
         C         C         1.0       0.6931255008388136  0.7063395312951778  0.09179127473224824          1.0000   
         C         C         1.0       0.6918518912853284  0.6914069097964324  0.059959012698437945         1.0000   
         C         C         1.0       0.7013284313584144  0.6887006521056049  0.010375344766875958         1.0000   
         C         C         1.0       0.7121315671586097  0.7011294418040626  0.9933477520071847 1.0000   
         C         C         1.0       0.7028819632847667  0.7388324737669587  0.0969516399035184 1.0000   
         C         C         1.0       0.6869861316582659  0.7470829688448521  0.06576783681521059          1.0000   
         C         C         1.0       0.6698923711547744  0.746106812287288   0.08939979905013473          1.0000   
         C         C         1.0       0.6568251717298366  0.7537348765086679  0.06252417006773503          1.0000   
         C         C         1.0       0.6585850344467068  0.760169582272679   0.007307758232115934         1.0000   
         C         C         1.0       0.6740638113122231  0.7603982592689713  0.9812461667428332 1.0000   
         C         C         1.0       0.688337409139828   0.7531356933696484  0.009902858110216293         1.0000   
         C         C         1.0       0.7072062786702963  0.7271401253328151  0.20122011538282478          1.0000   
         C         C         1.0       0.704147872436794   0.7268042001508792  0.2588373397760484 1.0000   
         C         C         1.0       0.6961619819736076  0.7398907765480184  0.2861543441577121 1.0000   
         C         C         1.0       0.6910173244348141  0.7539356840857582  0.2522797103423214 1.0000   
         C         C         1.0       0.6936536926410943  0.7541161331143846  0.193387850138002  1.0000   
         C         C         1.0       0.701592371522415   0.739859920884834   0.16538766907130245          1.0000   
         C         C         1.0       0.6878548128344822  0.7367303907312746  0.3489652968357678 1.0000   
         C         C         1.0       0.650643938154102   0.6988105745158332  0.2911026746771921 1.0000   
         C         C         1.0       0.6644401875670873  0.6941771957084577  0.3238024577911111 1.0000   
         C         C         1.0       0.6759814932435437  0.7059817129928186  0.3432994283279405 1.0000   
         C         C         1.0       0.6730812103444589  0.7235388656596824  0.3363012351860755 1.0000   
         C         C         1.0       0.6577486694391093  0.7283984178533495  0.30690987231433764          1.0000   
         C         C         1.0       0.6462109417974065  0.7161409466142992  0.2844877336192356 1.0000   
         C         C         1.0       0.6827111673441941  0.7554194675586942  0.3764056154223216 1.0000   
         C         C         1.0       0.6946250400783958  0.768551585134615   0.3781368360630358 1.0000   
         C         C         1.0       0.6933240293257028  0.780886297989352   0.4201914936687536 1.0000   
         C         C         1.0       0.6787437329870849  0.78196977126165    0.4558956002779697 1.0000   
         C         C         1.0       0.6654361935247137  0.7704853215165008  0.44688699001477356          1.0000   
         C         C         1.0       0.66791723209644    0.7571915546079837  0.4089442333220692 1.0000   
         C         C         1.0       0.6932849563890408  0.7239130100607613  0.4503020393979823 1.0000   
         C         C         1.0       0.7026908922737882  0.7143440096693531  0.48823391051380655          1.0000   
         C         C         1.0       0.7191452122758357  0.7089351486750453  0.4779834267363861 1.0000   
         C         C         1.0       0.727327744842334   0.7149473985145698  0.4287351683759676 1.0000   
         C         C         1.0       0.7177494194933728  0.7248082377780419  0.38984846376802756          1.0000   
         C         C         1.0       0.7003524646801148  0.7283153452556124  0.39891437117397255          1.0000   
         H         H         1.0       0.7200957532974092  0.7276505406875436  0.001041745225744517         1.0000   
         H         H         1.0       0.6840117012869746  0.7079330359723264  0.1269152060938172 1.0000   
         H         H         1.0       0.6836726133181743  0.6817193453154443  0.07582886023302104          1.0000   
         H         H         1.0       0.7205457050136834  0.6984931503809069  0.957915269360533  1.0000   
         H         H         1.0       0.6681962089728718  0.7405067815222401  0.13227816289315147          1.0000   
         H         H         1.0       0.6442414651035523  0.7538852472834573  0.08405408036924555          1.0000   
         H         H         1.0       0.6751240735550309  0.7642948048739648  0.9370389600015923 1.0000   
         H         H         1.0       0.7001471980945164  0.7508378766043666  0.9871200303541652 1.0000   
         H         H         1.0       0.7141629274309349  0.7154985864052886  0.18367126132115327          1.0000   
         H         H         1.0       0.7067474483782905  0.7141731849718828  0.2761868800039663 1.0000   
         H         H         1.0       0.683504186902384   0.7644256799195834  0.2688171129779486 1.0000   
         H         H         1.0       0.6886379215077207  0.7649222477086034  0.16832525538585996          1.0000   
         H         H         1.0       0.6668621287395424  0.680573333887757   0.3330590608292302 1.0000   
         H         H         1.0       0.6881033221738859  0.6998033178265576  0.35537923663615834          1.0000   
         H         H         1.0       0.6548065621647752  0.7425421338824313  0.30088885756246125          1.0000   
         H         H         1.0       0.6358221457949341  0.718623264352839   0.25224970758343707          1.0000   
         H         H         1.0       0.7063310517929494  0.7675316909723119  0.351403052398997  1.0000   
         H         H         1.0       0.7036723795195172  0.7906859070231368  0.4274077370013026 1.0000   
         H         H         1.0       0.6545119990142068  0.7704418870888978  0.4763253473799813 1.0000   
         H         H         1.0       0.6579516467272565  0.7469671386519848  0.40686260347580216          1.0000   
         H         H         1.0       0.6783485258577797  0.7271440631129562  0.4549208255805291 1.0000   
         H         H         1.0       0.6966229694448285  0.70994609958316    0.5250831178159898 1.0000   
         H         H         1.0       0.7413257092976866  0.7121383879379407  0.4222826628444497 1.0000   
         H         H         1.0       0.7237623135611934  0.7281823034590077  0.3494411677515875 1.0000   
         C         C         1.0       0.685739809895365   0.7786672400558748  0.5936316484317251 1.0000   
         C         C         1.0       0.6802290399939933  0.7820798253991211  0.6493635153055217 1.0000   
         C         C         1.0       0.6806101718603909  0.7690686148016018  0.6883381465207526 1.0000   
         C         C         1.0       0.6864767792051931  0.7527189040048105  0.6739148080706847 1.0000   
         C         C         1.0       0.6900245730257988  0.7495627835065258  0.6172891465058247 1.0000   
         C         C         1.0       0.6899408914448221  0.7619580390999532  0.5765170326898087 1.0000   
         H         H         1.0       0.6749994655996866  0.7950253561692768  0.6635699745050946 1.0000   
         H         H         1.0       0.6786714557124622  0.7724787585548323  0.7359350493688989 1.0000   
         H         H         1.0       0.6950354001136942  0.7369715143468883  0.6001146783786786 1.0000   
         H         H         1.0       0.6938744231497691  0.7589274391182173  0.5329371632105006 1.0000   
         C         C         1.0       0.6710623563437359  0.7144752767137305  0.6626445065232535 1.0000   
         C         C         1.0       0.6855727387945462  0.7188491121996131  0.6942790137510404 1.0000   
         C         C         1.0       0.696844934189011   0.7061266085363311  0.7083572983620466 1.0000   
         C         C         1.0       0.6946422845101851  0.6901690040084825  0.6879941238693885 1.0000   
         C         C         1.0       0.6796825365030105  0.6855035251382671  0.6583100811554946 1.0000   
         C         C         1.0       0.6680464727171658  0.6976035586041706  0.6439728440575759 1.0000   
         C         C         1.0       0.6893039049760206  0.7376020795003301  0.7231866856679667 1.0000   
         C         C         1.0       0.6746025491962423  0.7348510569464131  0.7681531389738396 1.0000   
         C         C         1.0       0.6779569198270591  0.7261926533599153  0.8167244848533601 1.0000   
         C         C         1.0       0.6664896610922917  0.7225630038636982  0.8593180203761533 1.0000   
         C         C         1.0       0.6495726896605778  0.727005707156886   0.8504864584847612 1.0000   
         C         C         1.0       0.6445778072251043  0.7357310503164299  0.801265230452144  1.0000   
         C         C         1.0       0.6572400099094219  0.7396934328138703  0.7607854582256623 1.0000   
         C         C         1.0       0.7210926780973139  0.7385698650611493  0.7017235793361832 1.0000   
         C         C         1.0       0.7375238399380982  0.7378841424032933  0.7191696067941163 1.0000   
         C         C         1.0       0.7426982649907863  0.7393225950559552  0.7753185397237142 1.0000   
         C         C         1.0       0.7303828465308938  0.7438310098180427  0.8148664045303956 1.0000   
         C         C         1.0       0.7134057896148097  0.7458883376154776  0.796921229730878  1.0000   
         C         C         1.0       0.7085808916508908  0.7406855720353391  0.7410979178744415 1.0000   
         C         C         1.0       0.7626873208153502  0.7337808517119254  0.7903998806337103 1.0000   
         C         C         1.0       0.7497478110207219  0.6789006537389909  0.7890349646920392 1.0000   
         C         C         1.0       0.7568544496624473  0.6863772201605727  0.741287215019174  1.0000   
         C         C         1.0       0.7612183700710665  0.7036419392261505  0.7451198213745277 1.0000   
         C         C         1.0       0.7590748661773467  0.7131532364196018  0.7932064585561982 1.0000   
         C         C         1.0       0.751364303759421   0.7059339658783792  0.8405033709935572 1.0000   
         C         C         1.0       0.7461615699158256  0.6891636314135247  0.8368894459849803 1.0000   
         C         C         1.0       0.7686041862436215  0.7424319978927599  0.8488573267344329 1.0000   
         C         C         1.0       0.7657712492376454  0.7601491662540925  0.8554852361131866 1.0000   
         C         C         1.0       0.7701788529265733  0.768012989969799   0.905002119514126  1.0000   
         C         C         1.0       0.7766628600315748  0.7592789927863479  0.9487238766560527 1.0000   
         C         C         1.0       0.781487760193807   0.7422285001242191  0.9413903895324627 1.0000   
         C         C         1.0       0.7773213080614227  0.7336192172723229  0.8931854193501245 1.0000   
         C         C         1.0       0.7926080829122305  0.7311023134131268  0.7481901325239263 1.0000   
         C         C         1.0       0.8063261988967576  0.7365889415500587  0.7162775004608488 1.0000   
         C         C         1.0       0.8053141564519768  0.75283445273453    0.6892768408275751 1.0000   
         C         C         1.0       0.7900516316768946  0.7612690394731231  0.6879944939042753 1.0000   
         C         C         1.0       0.7759948504186198  0.755794119153994   0.7188236850731184 1.0000   
         C         C         1.0       0.777389871758853   0.7400776378900173  0.7485982550928351 1.0000   
         H         H         1.0       0.6611786233275126  0.7235933056929083  0.6546904213826836 1.0000   
         H         H         1.0       0.7070961684280277  0.7080918153281383  0.7396554950868887 1.0000   
         H         H         1.0       0.7037928447070132  0.6801816799913122  0.6981598140518462 1.0000   
         H         H         1.0       0.6557979665044875  0.6949416055167265  0.6221890716731838 1.0000   
         H         H         1.0       0.6900662778584806  0.7195306599482431  0.8199479054652435 1.0000   
         H         H         1.0       0.6703158501427162  0.7147578916299794  0.8954129734582618 1.0000   
         H         H         1.0       0.6317055309708056  0.7401614878369301  0.7937020522233614 1.0000   
         H         H         1.0       0.6536166436351462  0.7459319324813719  0.720861066196582  1.0000   
         H         H         1.0       0.7187729628126593  0.736304424733954   0.6547962881426043 1.0000   
         H         H         1.0       0.7473012202847277  0.734736016726739   0.6863473120746908 1.0000   
         H         H         1.0       0.7330618440264014  0.7457777417204358  0.859317737118754  1.0000   
         H         H         1.0       0.7037249086587385  0.7468814457513674  0.8314941293427904 1.0000   
         H         H         1.0       0.7589402666510058  0.6795879080719793  0.7027175058944024 1.0000   
         H         H         1.0       0.7646750745635644  0.7097727193045288  0.705429808716003  1.0000   
         H         H         1.0       0.7492268868722298  0.7139024318304246  0.876254579531694  1.0000   
         H         H         1.0       0.7396075341747766  0.6841408335610769  0.877312167818119  1.0000   
         H         H         1.0       0.7591980878030801  0.768172480428728   0.8228428422740625 1.0000   
         H         H         1.0       0.7658573786313468  0.7814786153435425  0.913403466390558  1.0000   
         H         H         1.0       0.7870312629779831  0.7352675535034088  0.9755130631736603 1.0000   
         H         H         1.0       0.7809106902576007  0.7195418103019191  0.8951955438205526 1.0000   
         H         H         1.0       0.7937213743818334  0.7207432007040263  0.7789789979079323 1.0000   
         H         H         1.0       0.8187380705406232  0.7306478630275053  0.7155793500550105 1.0000   
         H         H         1.0       0.7890897086491705  0.7734246824724534  0.6624192249617624 1.0000   
         H         H         1.0       0.764215002879472   0.7632797758844062  0.7205956607145608 1.0000   
         C         C         1.0       0.6145920561700324  0.7556762859191033  0.01598556929077266          1.0000   
         C         C         1.0       0.5978059051093462  0.759117761754573   0.033411961482310064         1.0000   
         C         C         1.0       0.5872449798605499  0.7464724265363505  0.055528980315172394         1.0000   
         C         C         1.0       0.5930700964507063  0.7295044669058126  0.05941276989760102          1.0000   
         C         C         1.0       0.6102327228556469  0.7263003300575828  0.0420234408016078 1.0000   
         C         C         1.0       0.6207395044484864  0.7393656066742168  0.020760490950643362         1.0000   
         H         H         1.0       0.5920572473091664  0.771687017313854   0.028924166471234303         1.0000   
         H         H         1.0       0.5750039115635512  0.7498851883869805  0.07657025667910777          1.0000   
         H         H         1.0       0.6146841884422396  0.714538022487466   0.05453856629767694          1.0000   
         H         H         1.0       0.6336966271131035  0.7352229491820542  0.008381137282779559         1.0000   
         C         C         1.0       0.5902020149583305  0.6887988366283737  0.02159952729345038          1.0000   
         C         C         1.0       0.5867108759913908  0.6946998702934072  0.07784325692383454          1.0000   
         C         C         1.0       0.5824120536757824  0.6822904067594974  0.1162249677817412 1.0000   
         C         C         1.0       0.5841767233405996  0.6654097949060682  0.10640626278119301          1.0000   
         C         C         1.0       0.5879086722861632  0.6597497523745117  0.05184582136933157          1.0000   
         C         C         1.0       0.5904995869914862  0.6719079352277426  0.0080519084914763 1.0000   
         C         C         1.0       0.5820321313114603  0.7149622838697078  0.09096625071979414          1.0000   
         C         C         1.0       0.5617447461410656  0.7146437458549172  0.0739553682432774 1.0000   
         C         C         1.0       0.5493165725146925  0.7062036442209825  0.10556644264769433          1.0000   
         C         C         1.0       0.5323207353053935  0.7060044226752481  0.08831874450539477          1.0000   
         C         C         1.0       0.5267657190678232  0.7134818477038338  0.037178102194190155         1.0000   
         C         C         1.0       0.5396428496391281  0.720100818992087   0.0025731645215585353        1.0000   
         C         C         1.0       0.5566329552634794  0.7212622671947151  0.021353901389352444         1.0000   
         C         C         1.0       0.5946344291461952  0.711304790245714   0.19168153965348897          1.0000   
         C         C         1.0       0.5914783795834063  0.7099529819966559  0.24881008616929462          1.0000   
         C         C         1.0       0.5775990785699842  0.7183261130703417  0.27197424043258067          1.0000   
         C         C         1.0       0.5696599683957748  0.7305635156376533  0.24005659000096893          1.0000   
         C         C         1.0       0.5722169233713906  0.7316032656076987  0.18283675121558418          1.0000   
         C         C         1.0       0.5836575962466288  0.7199647909224722  0.1571676203305534 1.0000   
         C         C         1.0       0.5700455122919306  0.7118137899199694  0.33097059809835105          1.0000   
         C         C         1.0       0.5578748985394648  0.6571245712903311  0.31318451054129465          1.0000   
         C         C         1.0       0.5653868896528943  0.6630978480206831  0.3635922749078109 1.0000   
         C         C         1.0       0.5689805136723353  0.6798467259583673  0.3684399889261464 1.0000   
         C         C         1.0       0.5659642102273444  0.6918581972028847  0.32562106381111083          1.0000   
         C         C         1.0       0.5582754406690157  0.6856539240900029  0.2763623332692277 1.0000   
         C         C         1.0       0.5542161077466025  0.6686347321134419  0.27145720524107586          1.0000   
         C         C         1.0       0.5516115172362991  0.7187971435643689  0.3524104114422202 1.0000   
         C         C         1.0       0.5378708439228262  0.7215346418248623  0.3169099466201564 1.0000   
         C         C         1.0       0.5216924755234924  0.7255628905224464  0.3371050905120925 1.0000   
         C         C         1.0       0.5179370422185595  0.7250793265678162  0.3966223391757286 1.0000   
         C         C         1.0       0.5315129512388176  0.7230641584659953  0.43345362837754636          1.0000   
         C         C         1.0       0.5482382619051177  0.7198659572670357  0.41129129985265067          1.0000   
         C         C         1.0       0.5862374754840632  0.7356453164078808  0.38099251031974507          1.0000   
         C         C         1.0       0.5992619803487249  0.7428438714482927  0.41264141299118307          1.0000   
         C         C         1.0       0.6117782715574609  0.7329644757188976  0.43798607829261177          1.0000   
         C         C         1.0       0.6128998474943033  0.7159934352398374  0.4203001578901416 1.0000   
         C         C         1.0       0.5996082017591006  0.70888860394124    0.3895429406745487 1.0000   
         C         C         1.0       0.5855135955839402  0.7183505770030113  0.36983549974980606          1.0000   
         H         H         1.0       0.5905587480422625  0.698673125607411   0.9884490851182103 1.0000   
         H         H         1.0       0.578003458302881   0.6852040369650452  0.15908928882354054          1.0000   
         H         H         1.0       0.5790767926113077  0.6561680851119026  0.14049898132703362          1.0000   
         H         H         1.0       0.5934714532973221  0.668246046008184   0.9643066098695203 1.0000   
         H         H         1.0       0.5511082475502957  0.7004352343412877  0.14692224762342734          1.0000   
         H         H         1.0       0.5236185118726343  0.7017335480799298  0.11843527267644041          1.0000   
         H         H         1.0       0.5368314488682155  0.7254639326852066  0.9577277813209989 1.0000   
         H         H         1.0       0.5648717517429567  0.7257369553534534  0.9891228426049109 1.0000   
         H         H         1.0       0.6031407200947247  0.702122054076781   0.1749730234230468 1.0000   
         H         H         1.0       0.5991078081917627  0.7012128196203953  0.2722939789363903 1.0000   
         H         H         1.0       0.561139399764876   0.7400637412516676  0.2579353774648944 1.0000   
         H         H         1.0       0.5643186602772208  0.7405951126836476  0.15964291617190215          1.0000   
         H         H         1.0       0.5662479134848084  0.6551315937713961  0.4037376429816311 1.0000   
         H         H         1.0       0.571178425632823   0.68447359024309    0.4093999311621009 1.0000   
         H         H         1.0       0.5550386922367613  0.6939043855855739  0.2395981707577225 1.0000   
         H         H         1.0       0.550836540770832   0.6632583974914077  0.2325606613438018 1.0000   
         H         H         1.0       0.5404894886521249  0.7191632437113421  0.2726902245415066 1.0000   
         H         H         1.0       0.511628134071736   0.7279607348054737  0.3064873548995631 1.0000   
         H         H         1.0       0.5288833640938179  0.7207750030008384  0.4778491073340692 1.0000   
         H         H         1.0       0.5591968784879868  0.7183618760725723  0.4424010068237408 1.0000   
         H         H         1.0       0.5764636302696746  0.744338132464928   0.368423171714441  1.0000   
         H         H         1.0       0.5994637553311448  0.7558305241325679  0.41754406034780134          1.0000   
         H         H         1.0       0.6235851514967057  0.7092927068106757  0.4430108620475503 1.0000   
         H         H         1.0       0.6015429909013554  0.6949893065555435  0.38241919683820724          1.0000   
         C         C         1.0       0.6143617564626386  0.703310861366653   0.8401017930103165 1.0000   
         C         C         1.0       0.6042103678184847  0.7162404479222246  0.8216424912944531 1.0000   
         C         C         1.0       0.5944037802169275  0.7146185128290523  0.774226168415724  1.0000   
         C         C         1.0       0.5937965226215246  0.6999472253215541  0.7417198113639623 1.0000   
         C         C         1.0       0.6031970808610463  0.6861984081696502  0.762669569258583  1.0000   
         C         C         1.0       0.6124267432257195  0.6873737626524171  0.8124471941962346 1.0000   
         H         H         1.0       0.6062491014274405  0.7293026827866095  0.8432263785409398 1.0000   
         H         H         1.0       0.58833141259839    0.7267049929223195  0.7576518973283901 1.0000   
         H         H         1.0       0.6041981734250412  0.6741231957464163  0.7421729213942019 1.0000   
         H         H         1.0       0.6211982859127514  0.6775470066089204  0.827426468505205  1.0000   
         C         C         1.0       0.6091451395518709  0.6789855639820038  0.6218805829981208 1.0000   
         C         C         1.0       0.5919682719050864  0.6849822226408775  0.6298432436521819 1.0000   
         C         C         1.0       0.5803095501657816  0.6821096151062428  0.5866116404549634 1.0000   
         C         C         1.0       0.5855030214832893  0.6744326812648948  0.5358028105138849 1.0000   
         C         C         1.0       0.6015501651874569  0.6681258659048813  0.5294912491178386 1.0000   
         C         C         1.0       0.6133792113203068  0.6702738655818699  0.5733876254697183 1.0000   
         C         C         1.0       0.5867450520247652  0.6999031356047988  0.6781070257911818 1.0000   
         C         C         1.0       0.5943068110948847  0.7163475478669588  0.6462516045419414 1.0000   
         C         C         1.0       0.5840631019546971  0.7244739502103446  0.6045179884328445 1.0000   
         C         C         1.0       0.591358706351861   0.7363005602228352  0.568881481368309  1.0000   
         C         C         1.0       0.608216239905044   0.7393326864885859  0.5709798694450756 1.0000   
         C         C         1.0       0.6188133507659731  0.7317885548263063  0.6119904909287686 1.0000   
         C         C         1.0       0.612114520675112   0.7205206439808467  0.6489129889061904 1.0000   
         C         C         1.0       0.5552609806498274  0.6863953389140713  0.7000049445419332 1.0000   
         C         C         1.0       0.5378145190898078  0.6887005388013193  0.7111547737375166 1.0000   
         C         C         1.0       0.5312812185783465  0.7056471581794369  0.7150378730645758 1.0000   
         C         C         1.0       0.5420191425872397  0.7191394062664946  0.7134870639560634 1.0000   
         C         C         1.0       0.5596222528437756  0.7170169082753305  0.7061496802832714 1.0000   
         C         C         1.0       0.5663458758457548  0.7007970945963511  0.6928033213044694 1.0000   
         C         C         1.0       0.5114136801660312  0.7098138791956226  0.7239023969286735 1.0000   
         C         C         1.0       0.4697647817425817  0.6725606197260184  0.6862169910944496 1.0000   
         C         C         1.0       0.466759912691269   0.6868924014422587  0.7187377464061375 1.0000   
         C         C         1.0       0.4795051996317815  0.6986261238866782  0.7281118128649429 1.0000   
         C         C         1.0       0.49624430431377176           0.6959412931797372 0.7077200719091247 1.0000   
         C         C         1.0       0.4988760996647876  0.6820855463348313  0.671608745966697  1.0000   
         C         C         1.0       0.4856312232626646  0.6702467466399227  0.6618913627667448 1.0000   
         C         C         1.0       0.5051980921043101  0.724879478026798   0.6792795949606111 1.0000   
         C         C         1.0       0.5104877566341223  0.7251181532352031  0.6202852940577862 1.0000   
         C         C         1.0       0.5068750277132962  0.7391493816960437  0.5889243086578478 1.0000   
         C         C         1.0       0.4981276099757418  0.7530308405550893  0.611470572593676  1.0000   
         C         C         1.0       0.49175159409506275           0.7515173042334546 0.6658870188353401 1.0000   
         C         C         1.0       0.49461148359493595           0.7375583234605496 0.6990902602202094 1.0000   
         C         C         1.0       0.514116713270587   0.731001830916196   0.81209038644392   1.0000   
         C         C         1.0       0.5124477089041795  0.7345770631497243  0.8699819397791445 1.0000   
         C         C         1.0       0.5069146635345401  0.7219287649855561  0.9070152001378774 1.0000   
         C         C         1.0       0.5057971606501933  0.7055720177138274  0.8877926703671744 1.0000   
         C         C         1.0       0.5086287264540895  0.7020303968958351  0.8305327790849248 1.0000   
         C         C         1.0       0.5113800125412776  0.7148216211050081  0.7899832136878203 1.0000   
         H         H         1.0       0.6184480293745761  0.6807263071322087  0.656272213403548  1.0000   
         H         H         1.0       0.5681379490736325  0.6873551585585261  0.5802868224117239 1.0000   
         H         H         1.0       0.5774232387040703  0.6732776371394009  0.4957632260294388 1.0000   
         H         H         1.0       0.6263772945479066  0.6670370493880768  0.5683837617072821 1.0000   
         H         H         1.0       0.5709134795453769  0.7226480977383559  0.5938182497587621 1.0000   
         H         H         1.0       0.5830153335950548  0.7414226127700263  0.5332396044489509 1.0000   
         H         H         1.0       0.6329440730341989  0.7354714471601791  0.6107913419937225 1.0000   
         H         H         1.0       0.620005224770724   0.7137833541949385  0.679381511954805  1.0000   
         H         H         1.0       0.5603847447071363  0.6740390852775864  0.694370194950086  1.0000   
         H         H         1.0       0.529702568222987   0.6770667949382588  0.7108199882716143 1.0000   
         H         H         1.0       0.5389553258444026  0.7322481704370684  0.7168961648651819 1.0000   
         H         H         1.0       0.5674505035765319  0.7288167101780415  0.7069297669097286 1.0000   
         H         H         1.0       0.45404854430382724           0.6885247906078911 0.7366020289898642 1.0000   
         H         H         1.0       0.47557533284793685           0.7097079462354771 0.7489697553521337 1.0000   
         H         H         1.0       0.5113053571209933  0.6800747581399333  0.6508380717241459 1.0000   
         H         H         1.0       0.4886304061273008  0.6582152979861391  0.6432335256791272 1.0000   
         H         H         1.0       0.5202586840916557  0.7162153331869598  0.6036594245032357 1.0000   
         H         H         1.0       0.5124399788222038  0.7423766813132876  0.5475225387924261 1.0000   
         H         H         1.0       0.4817443562162261  0.7601668570978195  0.6812442800073163 1.0000   
         H         H         1.0       0.48749597816774354           0.7371536646126415 0.7375551026373091 1.0000   
         H         H         1.0       0.5179797605217413  0.740080200770422   0.7818825499588553 1.0000   
         H         H         1.0       0.5135493166269721  0.7481597266615019  0.8817923254774048 1.0000   
         H         H         1.0       0.5041016397448543  0.6944151992130518  0.9135417087154591 1.0000   
         H         H         1.0       0.5083943690468584  0.6881732020159189  0.818259118568566  1.0000   
         C         C         1.0       0.7095171001729765  0.5606775662680775  0.5812842481897931 1.0000   
         C         C         1.0       0.6955691623278961  0.5536803307409327  0.552561082628193  1.0000   
         C         C         1.0       0.6799794419604749  0.562455731047837   0.5478639826985983 1.0000   
         C         C         1.0       0.6793068596352697  0.5782808148830665  0.5710899349282554 1.0000   
         C         C         1.0       0.6948225971463566  0.5866141603729011  0.5899995114765466 1.0000   
         C         C         1.0       0.7089461038301961  0.5770206825358655  0.5998041086135872 1.0000   
         H         H         1.0       0.6965747052022739  0.540749678783525   0.5371365433132436 1.0000   
         H         H         1.0       0.6686407808822459  0.5564277226681112  0.5272395720394608 1.0000   
         H         H         1.0       0.6955024414134068  0.6004448321937319  0.5986466052865695 1.0000   
         H         H         1.0       0.7201955255324755  0.5833523171785848  0.6191292050560571 1.0000   
         C         C         1.0       0.6668435066795074  0.6092515405042571  0.6554764846663773 1.0000   
         C         C         1.0       0.6585638785507181  0.6064166580173286  0.6045098341663907 1.0000   
         C         C         1.0       0.6494620359494299  0.6207526648913907  0.5815917256871614 1.0000   
         C         C         1.0       0.6495276304193407  0.6364305133005465  0.6096610550952978 1.0000   
         C         C         1.0       0.6592528355339156  0.6386692957153726  0.6591691591686524 1.0000   
         C         C         1.0       0.6671508510464867  0.6247056387818036  0.6852739582572082 1.0000   
         C         C         1.0       0.6601648329284866  0.5882356097751313  0.5686975043668734 1.0000   
         C         C         1.0       0.6451928952185518  0.5780892607017062  0.5993288146057578 1.0000   
         C         C         1.0       0.6279118729204834  0.5825984507193354  0.592527742809869  1.0000   
         C         C         1.0       0.6153648670518191  0.5739736732169276  0.6213116096835029 1.0000   
         C         C         1.0       0.6192062149071689  0.5598926474928362  0.655911272156846  1.0000   
         C         C         1.0       0.6358689607538189  0.5555015410648083  0.6644885495442714 1.0000   
         C         C         1.0       0.6485989507024547  0.5647318479075158  0.6381761454832614 1.0000   
         C         C         1.0       0.6706015881100953  0.6037100898233349  0.4760766781660844 1.0000   
         C         C         1.0       0.6714029764931438  0.6076969220680952  0.4179308370921453 1.0000   
         C         C         1.0       0.6602036384671707  0.5991764040300033  0.3790232127609786 1.0000   
         C         C         1.0       0.6499819045715783  0.5856439620944728  0.40225425089055866          1.0000   
         C         C         1.0       0.6490077374023107  0.5826945744196859  0.46310361226471297          1.0000   
         C         C         1.0       0.6597881211526051  0.5918959429127746  0.49872762044461116          1.0000   
         C         C         1.0       0.6628678295974096  0.6024114117004091  0.31203656182978656          1.0000   
         C         C         1.0       0.6562408733909134  0.6548908742112046  0.25338998462370366          1.0000   
         C         C         1.0       0.6656053675400966  0.6436132714990169  0.22154023920371338          1.0000   
         C         C         1.0       0.6689994514759666  0.6274323922540289  0.2411002202260155 1.0000   
         C         C         1.0       0.6636887114286271  0.622308111086405   0.2960794558437256 1.0000   
         C         C         1.0       0.6558023614690328  0.6344380854840985  0.33057854479157317          1.0000   
         C         C         1.0       0.6519214968243131  0.6504593085654976  0.3081833568125884 1.0000   
         C         C         1.0       0.6465668134560545  0.5976596621799303  0.27442580226204116          1.0000   
         C         C         1.0       0.6298956543557617  0.6022257334371193  0.29196677579435654          1.0000   
         C         C         1.0       0.6160910184890167  0.600990050714664   0.253871667147423  1.0000   
         C         C         1.0       0.619130901418718   0.5949593232698676  0.19752557998661271          1.0000   
         C         C         1.0       0.6346343114953245  0.5889686036954027  0.1852213071677305 1.0000   
         C         C         1.0       0.6484925192995775  0.5901971484733726  0.2211293680256666 1.0000   
         C         C         1.0       0.6955270888967365  0.598530177649007   0.2913810668741455 1.0000   
         C         C         1.0       0.7104875393421283  0.5896212614220541  0.29386680036204726          1.0000   
         C         C         1.0       0.7106282994165233  0.5723976488921315  0.2963425117082806 1.0000   
         C         C         1.0       0.6943496386809505  0.563848590132833   0.3008816340632819 1.0000   
         C         C         1.0       0.6791421177634461  0.5726574837741489  0.29416206198480443          1.0000   
         C         C         1.0       0.6797831560154277  0.5906300147064434  0.29457309348108585          1.0000   
         H         H         1.0       0.6744556769458045  0.5982447280789601  0.6707217169875918 1.0000   
         H         H         1.0       0.6441747517926545  0.6183395843111124  0.5421175583581255 1.0000   
         H         H         1.0       0.6428255073694354  0.6458971562441471  0.590236334346948  1.0000   
         H         H         1.0       0.6759715233543845  0.6255099581638485  0.7228888044570719 1.0000   
         H         H         1.0       0.6261916329901445  0.5921073098005054  0.5579634812813823 1.0000   
         H         H         1.0       0.6029321097772451  0.5766419932646746  0.6067357233346904 1.0000   
         H         H         1.0       0.6391550071224927  0.5449405600700459  0.6912145023133844 1.0000   
         H         H         1.0       0.6611586906805275  0.561174421275261   0.652102645554276  1.0000   
         H         H         1.0       0.6803798710068367  0.6100349813493082  0.5047912963368888 1.0000   
         H         H         1.0       0.6804531497417012  0.6167318704143709  0.39736721548008647          1.0000   
         H         H         1.0       0.6426248391924537  0.576488862666153   0.37631018329137683          1.0000   
         H         H         1.0       0.6411188679242704  0.5715623974290347  0.47681368096667126          1.0000   
         H         H         1.0       0.667957959623487   0.6459804379251558  0.1780514074963839 1.0000   
         H         H         1.0       0.6738598713079293  0.6173339828598496  0.21197306240955102          1.0000   
         H         H         1.0       0.6478434656209799  0.6313176680350172  0.36918948161879084          1.0000   
         H         H         1.0       0.6431798650566195  0.6586135191158217  0.334893125075315  1.0000   
         H         H         1.0       0.6283422519303568  0.6084983069839756  0.33419387897688785          1.0000   
         H         H         1.0       0.6045429523326226  0.6072292450230324  0.2687093489271934 1.0000   
         H         H         1.0       0.6369081487890058  0.5847393411574148  0.14137739731193452          1.0000   
         H         H         1.0       0.6599315732501441  0.5851891679962454  0.20456576159176482          1.0000   
         H         H         1.0       0.6981351911633358  0.6123629078840864  0.2882351040366824 1.0000   
         H         H         1.0       0.721229518005332   0.5976362131244968  0.29475928167062954          1.0000   
         H         H         1.0       0.6942355161178358  0.5505715246598787  0.3110923992530837 1.0000   
         H         H         1.0       0.6677608461721593  0.5656341050611643  0.30065036350305285          1.0000   
         C         C         1.0       0.6129149367326799  0.5981246451386109  0.04355165436831676          1.0000   
         C         C         1.0       0.6068640599108795  0.5940358979616935  0.9908241539434696 1.0000   
         C         C         1.0       0.6141123014888175  0.6009802676385944  0.9412073227325823 1.0000   
         C         C         1.0       0.6262488659539992  0.6137242272422572  0.9449338132762509 1.0000   
         C         C         1.0       0.6301789519535591  0.6197007687044314  0.0005175103230146139        1.0000   
         C         C         1.0       0.6244959595618844  0.6112674042827971  0.05031420699974776          1.0000   
         H         H         1.0       0.5968244517827053  0.5839503976465333  0.9823116420693806 1.0000   
         H         H         1.0       0.6094147727756763  0.5947889180821881  0.899839826872682  1.0000   
         H         H         1.0       0.6407807552359521  0.6279010345430005  0.006457866643897025         1.0000   
         H         H         1.0       0.6284202653989537  0.6170588532288688  0.08882971791238448          1.0000   
         C         C         1.0       0.6418518159682397  0.6511672182278583  0.9291809447863629 1.0000   
         C         C         1.0       0.6469582885838795  0.6386311632217284  0.8935383601618111 1.0000   
         C         C         1.0       0.6626237315286735  0.6412844018074549  0.8631416572490441 1.0000   
         C         C         1.0       0.6724155255178843  0.6553078086636239  0.8719847734466623 1.0000   
         C         C         1.0       0.6680146975993664  0.666780285187874   0.9141363761951676 1.0000   
         C         C         1.0       0.6527964170842958  0.6651400923382355  0.94128978226791   1.0000   
         C         C         1.0       0.6360006771600665  0.6207233670600089  0.8864582225453748 1.0000   
         C         C         1.0       0.6240027640052743  0.6255442338941944  0.8336045912079336 1.0000   
         C         C         1.0       0.6289062437833235  0.6256088414531465  0.7753245847743608 1.0000   
         C         C         1.0       0.6176071491223704  0.6296673394406821  0.7301708899721565 1.0000   
         C         C         1.0       0.6013414733980152  0.6339952005291885  0.7402503322899499 1.0000   
         C         C         1.0       0.5963562954843132  0.6356435938401355  0.7970451874398511 1.0000   
         C         C         1.0       0.6078629038962197  0.6319456087078144  0.8433089033825241 1.0000   
         C         C         1.0       0.6632199228646498  0.6051483683404242  0.9220097379072262 1.0000   
         C         C         1.0       0.6786370684191269  0.5981710570121995  0.9113671882599761 1.0000   
         C         C         1.0       0.6827497196160421  0.590427869650602   0.8592377674006776 1.0000   
         C         C         1.0       0.6698891940599896  0.5908879337161157  0.8172955763849987 1.0000   
         C         C         1.0       0.6533702498871631  0.597327197411793   0.8285889877836761 1.0000   
         C         C         1.0       0.6508976983252839  0.6059533799048785  0.8809263240250507 1.0000   
         C         C         1.0       0.70195491135868    0.5872137734718172  0.8419149333712426 1.0000   
         C         C         1.0       0.7197125979608371  0.6398102111463156  0.7927794551634773 1.0000   
         C         C         1.0       0.7168888400218559  0.6363224010636533  0.8508661088766813 1.0000   
         C         C         1.0       0.711620476904657   0.6203563821241814  0.8673643799064121 1.0000   
         C         C         1.0       0.7078028577338082  0.6072885989535136  0.8281920762029792 1.0000   
         C         C         1.0       0.7082635923393694  0.6113230280359488  0.7701151196139341 1.0000   
         C         C         1.0       0.7154244235640368  0.6270574429472776  0.7525422117087985 1.0000   
         C         C         1.0       0.7074840138754152  0.5731749116438807  0.7933165541452017 1.0000   
         C         C         1.0       0.6975930560513152  0.558704236179872   0.7848594387961786 1.0000   
         C         C         1.0       0.7022270903502886  0.5470390831945928  0.7424254991678767 1.0000   
         C         C         1.0       0.7170121087698661  0.5491891622237457  0.7099260525803067 1.0000   
         C         C         1.0       0.7279010824447883  0.5623275327951837  0.7259163547605272 1.0000   
         C         C         1.0       0.7236409768042226  0.5735226884891035  0.7687471828537406 1.0000   
         C         C         1.0       0.7283139819776258  0.5852453778666068  0.9039205952445211 1.0000   
         C         C         1.0       0.7357362836477828  0.5840053989739221  0.9578655968999045 1.0000   
         C         C         1.0       0.7271048052246948  0.574515898937626   0.9984618492200974 1.0000   
         C         C         1.0       0.7119911612211999  0.5659690902879315  0.9882610973852268 1.0000   
         C         C         1.0       0.7042302153128467  0.5683349983076205  0.936216888737103  1.0000   
         C         C         1.0       0.7125658437925058  0.5793717345901596  0.8939087290155715 1.0000   
         H         H         1.0       0.6295273484729802  0.6513019229991636  0.9525911586176269 1.0000   
         H         H         1.0       0.6651600330939633  0.6315194101286804  0.8322581613358054 1.0000   
         H         H         1.0       0.684306217528497   0.6563780367954865  0.8467301472765022 1.0000   
         H         H         1.0       0.6489948612204545  0.6748518733826607  0.9719364777597379 1.0000   
         H         H         1.0       0.6422135173773174  0.6222900404815578  0.7624954094112689 1.0000   
         H         H         1.0       0.6227595609115033  0.6307749088473226  0.6873634992561239 1.0000   
         H         H         1.0       0.5830363103189756  0.6390534073709837  0.8070172512696765 1.0000   
         H         H         1.0       0.6035352657569265  0.6319924793305021  0.8890335009094973 1.0000   
         H         H         1.0       0.6632170775716513  0.6134907730070389  0.9599225608053127 1.0000   
         H         H         1.0       0.6884194642795409  0.5980169310894987  0.9477285978582812 1.0000   
         H         H         1.0       0.673549704975687   0.5846864193578367  0.7773578007830386 1.0000   
         H         H         1.0       0.6448022211731786  0.5959936903699389  0.791196161118168  1.0000   
         H         H         1.0       0.7202057417948892  0.6455343266272711  0.8853573350600678 1.0000   
         H         H         1.0       0.7111998042714154  0.6173783550220141  0.9129090961078693 1.0000   
         H         H         1.0       0.7019606186681342  0.6038835032946598  0.7380037295686617 1.0000   
         H         H         1.0       0.7160258250583441  0.6305690007101638  0.7058142993204592 1.0000   
         H         H         1.0       0.6851504665020335  0.5567201004893483  0.8032110544675192 1.0000   
         H         H         1.0       0.6932872695868482  0.5362654133574104  0.7323791725830108 1.0000   
         H         H         1.0       0.7383424274469049  0.5654700140899583  0.6992407720807085 1.0000   
         H         H         1.0       0.7328319853538838  0.5840853872367122  0.7804888900162282 1.0000   
         H         H         1.0       0.7359970541968984  0.592318765611354   0.8748083556504398 1.0000   
         H         H         1.0       0.7469270303767076  0.5909702221333909  0.9727434629989016 1.0000   
         H         H         1.0       0.7049954297591609  0.5585863635852377  0.019711693174317535         1.0000   
         H         H         1.0       0.6926282743972763  0.5616514310005981  0.9255131027926227 1.0000   
         C         C         1.0       0.587874543476526   0.5462888936756707  0.5806819001026886 1.0000   
         C         C         1.0       0.5723658095584426  0.5545839382184254  0.5907611038709842 1.0000   
         C         C         1.0       0.5663008465744758  0.5652027271414076  0.548776337022079  1.0000   
         C         C         1.0       0.5758914647441121  0.5701472264594958  0.5003078786868472 1.0000   
         C         C         1.0       0.5912288329977741  0.5612663399496391  0.4935999728390447 1.0000   
         C         C         1.0       0.5970350921817482  0.5490849350929705  0.5314653636694566 1.0000   
         H         H         1.0       0.5659276664887934  0.5535807079048827  0.6328177500431915 1.0000   
         H         H         1.0       0.5540589949085143  0.5715960357578104  0.5566831939523339 1.0000   
         H         H         1.0       0.5996656186131237  0.5641903937136451  0.4575962153712567 1.0000   
         H         H         1.0       0.6095184363320538  0.5433604627446481  0.5204651009865523 1.0000   
         C         C         1.0       0.5960053629528523  0.6035501876053021  0.5033972845540963 1.0000   
         C         C         1.0       0.5865511724229391  0.5992369687341076  0.45254084811906853          1.0000   
         C         C         1.0       0.5885649974777561  0.61013593337462    0.40742803933819993          1.0000   
         C         C         1.0       0.5977210748386833  0.6248993637218317  0.41207546325167516          1.0000   
         C         C         1.0       0.6063731912593864  0.629141304130342   0.46521817006321464          1.0000   
         C         C         1.0       0.6043936571579998  0.6186023601385802  0.5101577051652806 1.0000   
         C         C         1.0       0.5708342197470412  0.5849396638424814  0.45446639226156005          1.0000   
         C         C         1.0       0.5552619874198068  0.5977328823779352  0.4717393443915179 1.0000   
         C         C         1.0       0.5425055008971094  0.6030833417850233  0.43327276752429444          1.0000   
         C         C         1.0       0.5306700135416264  0.6155600012199711  0.4469000998513749 1.0000   
         C         C         1.0       0.5310959643971493  0.6226444456363827  0.5003608840023475 1.0000   
         C         C         1.0       0.5434426375934899  0.6183477547419712  0.5393769178072616 1.0000   
         C         C         1.0       0.5560764240231799  0.6066102612571849  0.5258520208575531 1.0000   
         C         C         1.0       0.5775451763063253  0.5712991218103837  0.35208567587564077          1.0000   
         C         C         1.0       0.5707048312805616  0.5636306048692494  0.3023849697366692 1.0000   
         C         C         1.0       0.554118468674647   0.5587519834676007  0.2986823823209013 1.0000   
         C         C         1.0       0.5450655504762085  0.5579354278894454  0.3512061390577729 1.0000   
         C         C         1.0       0.5511684855234478  0.5651789569005438  0.3994078799553895 1.0000   
         C         C         1.0       0.5667258006928964  0.573853733986908   0.4009438602890862 1.0000   
         C         C         1.0       0.5444573786320056  0.5578635155333906  0.24033824593987016          1.0000   
         C         C         1.0       0.5398271761018448  0.6128079391835298  0.2549387925848081 1.0000   
         C         C         1.0       0.5516757922777111  0.6063322019084803  0.214022310727989  1.0000   
         C         C         1.0       0.5511457044441128  0.5890893614532977  0.20230121069902038          1.0000   
         C         C         1.0       0.5409774717366271  0.5779206771487834  0.23482116480106394          1.0000   
         C         C         1.0       0.5274499182706611  0.5851113967534285  0.26384423666189594          1.0000   
         C         C         1.0       0.5267858891706202  0.6026742946650115  0.2742083188338782 1.0000   
         C         C         1.0       0.5285785050186095  0.5443774728205134  0.2377946264007224 1.0000   
         C         C         1.0       0.5294224009699452  0.5284854076690546  0.2668352248053366 1.0000   
         C         C         1.0       0.5156415276615793  0.5176036852479134  0.26707121631540565          1.0000   
         C         C         1.0       0.49983511148821264           0.523198205748062  0.24472854487052512          1.0000   
         C         C         1.0       0.49882120957580894           0.5379615004190941 0.21442688599656712          1.0000   
         C         C         1.0       0.5130733250521665  0.5492145337345604  0.21388002798828232          1.0000   
         C         C         1.0       0.5477380502258831  0.5520619887829643  0.12707157443421355          1.0000   
         C         C         1.0       0.5548468472403791  0.5430045581229024  0.0823279009450315 1.0000   
         C         C         1.0       0.5677847308308065  0.5312617695339062  0.09405935378916518          1.0000   
         C         C         1.0       0.5728005597792261  0.5282792058355946  0.15032394868983187          1.0000   
         C         C         1.0       0.5650712801803954  0.5364894634073806  0.19626839260938433          1.0000   
         C         C         1.0       0.5530813439407227  0.5489732386052208  0.18571965836378   1.0000   
         H         H         1.0       0.5951449249892455  0.5950710451446828  0.5378042094365397 1.0000   
         H         H         1.0       0.5816279876783865  0.6089550381896852  0.36765068300438164          1.0000   
         H         H         1.0       0.6006951930695271  0.6325352378511168  0.3728259689015476 1.0000   
         H         H         1.0       0.6117513179630695  0.6199146546170492  0.549114149955267  1.0000   
         H         H         1.0       0.543666533399317   0.5985117490768022  0.38882197673109187          1.0000   
         H         H         1.0       0.5208035567185473  0.6182514765377055  0.4148746609531452 1.0000   
         H         H         1.0       0.545077089384366   0.6254799024591116  0.5792115242891455 1.0000   
         H         H         1.0       0.5644597716403762  0.6024972353737935  0.5613086959142597 1.0000   
         H         H         1.0       0.5909526477735613  0.574587602408035   0.3547991035592418 1.0000   
         H         H         1.0       0.5779656592319253  0.5638219474250283  0.26436172812869135          1.0000   
         H         H         1.0       0.5321154768349021  0.5535756662708263  0.351840417084669  1.0000   
         H         H         1.0       0.5432259936663926  0.5644053631089861  0.43928621271127655          1.0000   
         H         H         1.0       0.5611129655011527  0.6140425063166108  0.1978555759123122 1.0000   
         H         H         1.0       0.5609880725686233  0.5854183796536708  0.17574251085858006          1.0000   
         H         H         1.0       0.517687756318807   0.5778768600023653  0.2855943900723673 1.0000   
         H         H         1.0       0.5171040625489166  0.6078402358120286  0.2978216777023418 1.0000   
         H         H         1.0       0.5413053636584525  0.5245425166668267  0.2878905534589423 1.0000   
         H         H         1.0       0.5173287732918257  0.5062618456844546  0.2938817169957162 1.0000   
         H         H         1.0       0.4861297558121747  0.5424622752922393  0.1980759919544981 1.0000   
         H         H         1.0       0.5120215456224955  0.5627268743830974  0.1939436047882937 1.0000   
         H         H         1.0       0.5360742026218586  0.559008258596555   0.12078817362627173          1.0000   
         H         H         1.0       0.5512587663720737  0.545838921113609   0.03921399920024249          1.0000   
         H         H         1.0       0.57916106581157    0.5162173560780812  0.1615305326702427 1.0000   
         H         H         1.0       0.5693500492119413  0.5325705266120975  0.23975396636518456          1.0000   
         C         C         1.0       0.5768948183768727  0.6069270025378906  0.6987398491304656 1.0000   
         C         C         1.0       0.5870475056150153  0.5947772218201245  0.7278728389609435 1.0000   
         C         C         1.0       0.5800823045093488  0.5860819132866505  0.7739190079848723 1.0000   
         C         C         1.0       0.5636828393333775  0.5903587702794207  0.7969191413416196 1.0000   
         C         C         1.0       0.5550013370707357  0.6029857895484472  0.7656837863861563 1.0000   
         C         C         1.0       0.5604470833986102  0.6101119553219678  0.7169429167724316 1.0000   
         H         H         1.0       0.6002382461784026  0.594117805007343   0.7178055785704264 1.0000   
         H         H         1.0       0.5853845110490151  0.5742165270169075  0.7895817695233222 1.0000   
         H         H         1.0       0.5428129464731046  0.6061636125175293  0.779311196177927  1.0000   
         H         H         1.0       0.5518164989552513  0.6195747361344823  0.6960294833900337 1.0000   
         C         C         1.0       0.5638021954649719  0.6132344658492045  0.896060301232606  1.0000   
         C         C         1.0       0.5571145496466631  0.5972494653619311  0.9095643998207288 1.0000   
         C         C         1.0       0.5541042880997328  0.5938895082721914  0.9675354663558912 1.0000   
         C         C         1.0       0.5557769515484426  0.6063215917503614  0.009390007897305708         1.0000   
         C         C         1.0       0.562690711408255   0.6218960530990785  0.9923068930143302 1.0000   
         C         C         1.0       0.5643728480907044  0.62555331440905    0.9361995899154725 1.0000   
         C         C         1.0       0.5553843513899767  0.5839517907061994  0.8587741788316802 1.0000   
         C         C         1.0       0.5630589332645709  0.5651759678951433  0.8793091443147814 1.0000   
         C         C         1.0       0.5527245956667977  0.5529010193433046  0.9009178558758789 1.0000   
         C         C         1.0       0.5584105397678172  0.5389941846975859  0.9324875183359661 1.0000   
         C         C         1.0       0.5749574313651037  0.539014590367467   0.9502366938248309 1.0000   
         C         C         1.0       0.5858685860868053  0.551017052365441   0.9308159250461404 1.0000   
         C         C         1.0       0.5798856284634559  0.565033998315159   0.8983350042303764 1.0000   
         C         C         1.0       0.5216946760750104  0.5910589411869198  0.8672564888119331 1.0000   
         C         C         1.0       0.505869571172719   0.5915006770107196  0.8422375145196768 1.0000   
         C         C         1.0       0.5026536215618627  0.5839277054275682  0.7899881079181182 1.0000   
         C         C         1.0       0.5151551208171644  0.5717898371369251  0.7706005891640834 1.0000   
         C         C         1.0       0.5308187654586137  0.5705904865787067  0.7979315621524381 1.0000   
         C         C         1.0       0.5352412389271438  0.5811061685101565  0.8437188604844623 1.0000   
         C         C         1.0       0.48605533867876527           0.5878718851761378 0.7490736134172749 1.0000   
         C         C         1.0       0.45703378594621713           0.6356010368090355 0.7557130802487734 1.0000   
         C         C         1.0       0.4494067294706976  0.6204139239381138  0.7415119675954689 1.0000   
         C         C         1.0       0.4578294655741279  0.6051665149280381  0.7466522016036499 1.0000   
         C         C         1.0       0.4750568949186604  0.6043523687919168  0.7653444671170301 1.0000   
         C         C         1.0       0.48211967817894097           0.6203440477192581 0.7795267488833413 1.0000   
         C         C         1.0       0.473573679750355   0.6355262687039007  0.7778729044556428 1.0000   
         C         C         1.0       0.47569917795572764           0.5704082310457504 0.7514965242472252 1.0000   
         C         C         1.0       0.4793611808798897  0.5572640574878744  0.7127861836207476 1.0000   
         C         C         1.0       0.4734923749185459  0.5409616834955452  0.7242095632455475 1.0000   
         C         C         1.0       0.46244314707859    0.5383241360614666  0.7693380940079171 1.0000   
         C         C         1.0       0.4579562602567318  0.552191102778974   0.8033260900638427 1.0000   
         C         C         1.0       0.4648163582464586  0.5679949597331665  0.7967171990109546 1.0000   
         C         C         1.0       0.4815100379619063  0.5931503724955095  0.6391097606965396 1.0000   
         C         C         1.0       0.4861171853421294  0.6016274342119763  0.589744210669717  1.0000   
         C         C         1.0       0.4995280237347005  0.6129906615378656  0.5862986713621702 1.0000   
         C         C         1.0       0.5103790376840693  0.6140421068809053  0.6336464480167995 1.0000   
         C         C         1.0       0.5069107646643046  0.6049626031160684  0.6830400406347858 1.0000   
         C         C         1.0       0.4924997621975011  0.5941080060343612  0.6874793688481246 1.0000   
         H         H         1.0       0.571556586471964   0.6166564352339134  0.8581101385470244 1.0000   
         H         H         1.0       0.549111545922206   0.5812490964827013  0.9806054724228132 1.0000   
         H         H         1.0       0.5522946227008465  0.6047491269051952  0.051850618594150744         1.0000   
         H         H         1.0       0.5685680853399556  0.6379479372290184  0.9233977081801492 1.0000   
         H         H         1.0       0.5386121350970086  0.5515564893683759  0.889833339568236  1.0000   
         H         H         1.0       0.5501982681363616  0.5290089154606279  0.9411675941233363 1.0000   
         H         H         1.0       0.5988638409028642  0.5517267395232016  0.9459282090399315 1.0000   
         H         H         1.0       0.58847173919796    0.575052549745441   0.8817374850557266 1.0000   
         H         H         1.0       0.52459536023364    0.5994021815715287  0.9022584334557716 1.0000   
         H         H         1.0       0.4968649349603045  0.5994403204023071  0.8564435167294907 1.0000   
         H         H         1.0       0.5135587009049146  0.5662333169314759  0.729784100100964  1.0000   
         H         H         1.0       0.5410483765126106  0.5639738797035222  0.7752342975894173 1.0000   
         H         H         1.0       0.43817208531737056           0.6206469621788263 0.7177431436902636 1.0000   
         H         H         1.0       0.4515012034858603  0.5948348146437998  0.7229071177118339 1.0000   
         H         H         1.0       0.49539915024371284           0.6213584676881492 0.7906433130151149 1.0000   
         H         H         1.0       0.47949252847510365           0.6479403749190044 0.7888536308803173 1.0000   
         H         H         1.0       0.4884725934895937  0.5595769024717935  0.6802902405437791 1.0000   
         H         H         1.0       0.47729680166654087           0.5296476264832265 0.7004815260184696 1.0000   
         H         H         1.0       0.4499864225725891  0.5500827722726113  0.8416381322811763 1.0000   
         H         H         1.0       0.46098426300908873           0.578186874130457  0.8199138143651123 1.0000   
         H         H         1.0       0.4716527551488232  0.5833695966762986  0.6327977088594369 1.0000   
         H         H         1.0       0.478440870031392   0.6014670290577615  0.5538430376047169 1.0000   
         H         H         1.0       0.5193793309323393  0.6238772954973479  0.6374915262142192 1.0000   
         H         H         1.0       0.5147414711706941  0.6079979798013218  0.7216989621454896 1.0000   
         C         C         1.0       0.10698118638835896           0.20418381330693477          0.8399559718483345 1.0000   
         C         C         1.0       0.10316445249219064           0.21964464884276594          0.8126436545880142 1.0000   
         C         C         1.0       0.09630658570976025           0.22026140990054333          0.7599749425590722 1.0000   
         C         C         1.0       0.09304782128654243           0.2051696996927669 0.7333140676726461 1.0000   
         C         C         1.0       0.09930251859956973           0.1898543132388886 0.7555681854981061 1.0000   
         C         C         1.0       0.10682909543534214           0.18897828115139356          0.808265491852548  1.0000   
         H         H         1.0       0.10579584171652945           0.23148207138196317          0.8349118314216474 1.0000   
         H         H         1.0       0.09222087449210581           0.2319846799791767 0.7447394055943084 1.0000   
         H         H         1.0       0.09901123293528014           0.17702108358623997          0.738980262955004  1.0000   
         H         H         1.0       0.11179581762275159           0.177626595026102  0.827025646800848  1.0000   
         C         C         1.0       0.09863158880549938           0.1805174589541095 0.6227403662809584 1.0000   
         C         C         1.0       0.08231744211131109           0.1874801246393403 0.6398641926492711 1.0000   
         C         C         1.0       0.06721682860832812           0.17827755128533163          0.621193367840318  1.0000   
         C         C         1.0       0.06871805924524144           0.16286168039824725          0.5937462396295687 1.0000   
         C         C         1.0       0.08447507253552455           0.15649261024123962          0.5817815438847876 1.0000   
         C         C         1.0       0.09917905252442694           0.1656314987931166 0.5921345856183536 1.0000   
         C         C         1.0       0.08158954391499829           0.205231654402328  0.673810463432983  1.0000   
         C         C         1.0       0.0881961188872391  0.2181318706667837  0.6215425676064897 1.0000   
         C         C         1.0       0.0778395688368283  0.22116175513696648           0.5764609973692889 1.0000   
         C         C         1.0       0.08073843777092149           0.23406624641586002          0.5368999357389135 1.0000   
         C         C         1.0       0.09555792667511676           0.2433134578973662 0.5421966658174752 1.0000   
         C         C         1.0       0.10711624740378167           0.2393253325584135 0.5853133699165344 1.0000   
         C         C         1.0       0.10289972166807448           0.2267932662000509 0.6239535984692656 1.0000   
         C         C         1.0       0.05344832828287749           0.19818498998388695          0.7334487405208007 1.0000   
         C         C         1.0       0.03651679674943553           0.20072165121077465          0.7486567151609644 1.0000   
         C         C         1.0       0.028169693101743665          0.21497219068990434          0.7282926344363813 1.0000   
         C         C         1.0       0.037490506459817   0.22757093864006694           0.7001364584976716 1.0000   
         C         C         1.0       0.054066596072146034          0.2248668896018457 0.6853382507814377 1.0000   
         C         C         1.0       0.06257098601681466           0.20987812690957774          0.6976921952718694 1.0000   
         C         C         1.0       0.007550782967662206          0.21671976680226454          0.7307582258932633 1.0000   
         C         C         1.0       0.9798562776149807  0.16913869552825128           0.7621841457730643 1.0000   
         C         C         1.0       0.9721128444009965  0.18454957807838787           0.7767075456916508 1.0000   
         C         C         1.0       0.9809562445824593  0.19947155237909117           0.7644630735350745 1.0000   
         C         C         1.0       0.9962743504279764  0.19914209350909076           0.7356106764580995 1.0000   
         C         C         1.0       0.0010422070331785882         0.18417920783238356          0.7110072319195203 1.0000   
         C         C         1.0       0.9932560167979055  0.16916240631427523           0.7244717882919404 1.0000   
         C         C         1.0       0.9987217889038401  0.22484983843468923           0.6714536756836275 1.0000   
         C         C         1.0       0.00520403763678301           0.22088427230244162          0.6167258563202227 1.0000   
         C         C         1.0       0.9992291896120609  0.2289512971579171  0.5686027999381876 1.0000   
         C         C         1.0       0.9860559527097416  0.24030617697900378           0.5731247550520292 1.0000   
         C         C         1.0       0.9784291490721138  0.24306504338365237           0.6261986043267439 1.0000   
         C         C         1.0       0.9836309962695051  0.23474355655561122           0.6732587824810748 1.0000   
         C         C         1.0       0.005956763135509968          0.2473633599974005 0.7803683026478214 1.0000   
         C         C         1.0       0.0034231794224666157         0.2570172527659642 0.8268841392902767 1.0000   
         C         C         1.0       0.0003465024467657063         0.24947473133500686          0.8782068103193998 1.0000   
         C         C         1.0       0.002030974188915291          0.23161479801026458          0.8854194515551328 1.0000   
         C         C         1.0       0.006481299164670107          0.2219511538911566 0.8398532845599022 1.0000   
         C         C         1.0       0.006298376982088794          0.22896363346701415          0.783759783264507  1.0000   
         H         H         1.0       0.11043587820252831           0.18736986234891773          0.6327750344742855 1.0000   
         H         H         1.0       0.0544536573082639  0.18339150052192446           0.6237965640088612 1.0000   
         H         H         1.0       0.05762247836545065           0.15423385793565367          0.5833646671161714 1.0000   
         H         H         1.0       0.11162656197982357           0.1594789649401998 0.5787049042776742 1.0000   
         H         H         1.0       0.06487362274211472           0.21446238422642597          0.5732526770535111 1.0000   
         H         H         1.0       0.0703509932796551  0.2365700270192651  0.5062758352302087 1.0000   
         H         H         1.0       0.11729190295762004           0.2483657874527773 0.594094684498883  1.0000   
         H         H         1.0       0.11158388461252922           0.2246875121006708 0.6575516935653555 1.0000   
         H         H         1.0       0.060567365451093425          0.1870781159046622 0.7476896824100983 1.0000   
         H         H         1.0       0.03087971532942868           0.19108452240904686          0.7728294351874504 1.0000   
         H         H         1.0       0.030071646205869884          0.2391647744175255 0.6841536126721167 1.0000   
         H         H         1.0       0.05884548934936307           0.23387554233130925          0.6569179753641392 1.0000   
         H         H         1.0       0.9596438057763548  0.1836505684059203  0.8015274864797065 1.0000   
         H         H         1.0       0.9769522877400535  0.2114103642064512  0.7868979817765247 1.0000   
         H         H         1.0       0.013134613006192009          0.18405585174945538          0.6878574281072967 1.0000   
         H         H         1.0       0.9976524793494741  0.15740426222198345           0.7107639133550242 1.0000   
         H         H         1.0       0.016459986085688882          0.21270627796127786          0.6110856844947722 1.0000   
         H         H         1.0       0.003683800791093317          0.2255364351241059 0.5285612845725963 1.0000   
         H         H         1.0       0.9692141234762812  0.25196157147977405           0.6356785958429195 1.0000   
         H         H         1.0       0.9756302082199819  0.23787048604854025           0.7102306819840878 1.0000   
         H         H         1.0       0.008830068593520535          0.25378675614013957          0.7400481906305199 1.0000   
         H         H         1.0       0.004763300292816464          0.2709064084433981 0.8234098228713767 1.0000   
         H         H         1.0       0.9987582379461059  0.22488059027885968           0.9247320332173216 1.0000   
         H         H         1.0       0.006763542410764822          0.20761538211674213          0.8440046393080199 1.0000   
         C         C         1.0       0.1144445060415642  0.2593212375238423  0.9991486687662311 1.0000   
         C         C         1.0       0.10094357705618173           0.269456394218827  0.017330469225868228         1.0000   
         C         C         1.0       0.08491596318272387           0.262676212739147  0.0341118632164763 1.0000   
         C         C         1.0       0.08179896497258787           0.2455782802262025 0.029829454028463376         1.0000   
         C         C         1.0       0.09658756783456779           0.23566383985879633          0.023820446864400102         1.0000   
         C         C         1.0       0.11201226242801843           0.2421167034309329 0.0045193330915946905        1.0000   
         H         H         1.0       0.10289853260007775           0.2828228726202196 0.019802505341272703         1.0000   
         H         H         1.0       0.07441677276282954           0.27145346194175296          0.045801876942922704         1.0000   
         H         H         1.0       0.09494217396854943           0.2218048586421388 0.02244032918228278          1.0000   
         H         H         1.0       0.12214690982499676           0.23337509947300272          0.9954980088472736 1.0000   
         C         C         1.0       0.06746434869650297           0.21700499764642095          0.9501250175535083 1.0000   
         C         C         1.0       0.06180406313902287           0.2191191815894527 0.006913086485051512         1.0000   
         C         C         1.0       0.053387191046429416          0.20496106689247082          0.0296736686718444 1.0000   
         C         C         1.0       0.052940799190751786          0.18896367702156242          0.002378158324783275         1.0000   
         C         C         1.0       0.06036468079177926           0.18762620125850335          0.9485474963415568 1.0000   
         C         C         1.0       0.06603253237973017           0.20187660670394247          0.9211024743365965 1.0000   
         C         C         1.0       0.06310919612010335           0.2372759108702046 0.03816367585952629          1.0000   
         C         C         1.0       0.04772156162387731           0.2484732602580294 0.015764915912553468         1.0000   
         C         C         1.0       0.03167031768347672           0.24618353838304288          0.03851434339203119          1.0000   
         C         C         1.0       0.018630788976986556          0.2573568227951615 0.02053623557869866          1.0000   
         C         C         1.0       0.020716605122029552          0.26806693764680534          0.9749901022519082 1.0000   
         C         C         1.0       0.03568039690491287           0.2680196159251888 0.9461580113560897 1.0000   
         C         C         1.0       0.049814613370877   0.25917405101013935           0.9674909810653627 1.0000   
         C         C         1.0       0.07203654118410996           0.22366630739803264          0.13581842082741669          1.0000   
         C         C         1.0       0.06991121325150162           0.22141605431551048          0.19537191320728065          1.0000   
         C         C         1.0       0.05957752153606721           0.23159042288888534          0.22526549892205727          1.0000   
         C         C         1.0       0.05697771539952812           0.24789848282507732          0.2010979987306547 1.0000   
         C         C         1.0       0.0571558117767037  0.24966499835451222           0.14314778818160168          1.0000   
         C         C         1.0       0.063487169467483   0.23707722783979485           0.10798333695618201          1.0000   
         C         C         1.0       0.050357259189933945          0.22592240825206222          0.285066221146123  1.0000   
         C         C         1.0       0.047604790681753384          0.17065739474926786          0.3104520644494266 1.0000   
         C         C         1.0       0.04908487196129485           0.18117810588286784          0.35685619736295543          1.0000   
         C         C         1.0       0.048230725639169414          0.1986970329822882 0.34865147808054653          1.0000   
         C         C         1.0       0.04690932602627362           0.20557412398782474          0.2934436479072432 1.0000   
         C         C         1.0       0.04396016728205421           0.1940777119759664 0.24758880830104335          1.0000   
         C         C         1.0       0.0447230170029842  0.17682406931987793           0.25558582788209516          1.0000   
         C         C         1.0       0.030377635087287747          0.23195242104759795          0.2894888100798161 1.0000   
         C         C         1.0       0.020168265938429908          0.23075401574776483          0.24186706139017367          1.0000   
         C         C         1.0       0.00399690167168254           0.2369054639613548 0.24024343266686388          1.0000   
         C         C         1.0       0.9970460562500957  0.24407378906587102           0.28744264912949724          1.0000   
         C         C         1.0       0.006245435747869843          0.24411872491457118          0.3388392515084726 1.0000   
         C         C         1.0       0.02271392203045397           0.2375719705961277 0.34084525668069615          1.0000   
         C         C         1.0       0.06080410927956237           0.24896655865377895          0.35532602431490085          1.0000   
         C         C         1.0       0.07185536247072544           0.25650557780988115          0.3926731122161023 1.0000   
         C         C         1.0       0.08763707012926325           0.2489775148974623 0.3985463929573197 1.0000   
         C         C         1.0       0.09040842278977834           0.23301784981599383          0.37860196016650105          1.0000   
         C         C         1.0       0.07980005254033418           0.22574861338414992          0.3399384919132116 1.0000   
         C         C         1.0       0.06427724591652462           0.23410463916206398          0.3281358152406487 1.0000   
         H         H         1.0       0.07348115198056848           0.22784601723351613          0.9271307295998431 1.0000   
         H         H         1.0       0.046526766661714625          0.20593515651318148          0.07229673328628072          1.0000   
         H         H         1.0       0.04770359541697289           0.17789881272563524          0.021910166462188352         1.0000   
         H         H         1.0       0.07253730460955143           0.20040070893476458          0.8757640208137903 1.0000   
         H         H         1.0       0.029450440637414532          0.23816077251451342          0.07734152312544662          1.0000   
         H         H         1.0       0.006974958846535317          0.25640043579792826          0.04082201405286101          1.0000   
         H         H         1.0       0.03804928200507729           0.27599998682838334          0.9101460912235395 1.0000   
         H         H         1.0       0.06106469547849791           0.2579516874781177 0.9446018649777952 1.0000   
         H         H         1.0       0.07958319795004365           0.21435343212627994          0.11098230345245108          1.0000   
         H         H         1.0       0.07651784900525915           0.2095749409740434 0.2123369995322215 1.0000   
         H         H         1.0       0.04897397255340197           0.2576033025419212 0.22315484714377143          1.0000   
         H         H         1.0       0.05085843531811762           0.2604476076327982 0.1259560825817314 1.0000   
         H         H         1.0       0.053222544497791624          0.17606254370342073          0.3974329400996249 1.0000   
         H         H         1.0       0.051541814294333355          0.20629085794481172          0.3847720840208092 1.0000   
         H         H         1.0       0.043420723969185726          0.19928748130826532          0.20677723856894437          1.0000   
         H         H         1.0       0.04361130919619427           0.16870393198696115          0.21873538528013636          1.0000   
         H         H         1.0       0.024562037568915507          0.22511748764443332          0.20081985589837403          1.0000   
         H         H         1.0       0.9973437475895927  0.23480969051810843           0.1988720450356556 1.0000   
         H         H         1.0       0.0009765885146602038         0.2514952271775787 0.3735336981746509 1.0000   
         H         H         1.0       0.029511767570356895          0.23554397110102523          0.38100291355525384          1.0000   
         H         H         1.0       0.04989420739111239           0.25721611791445076          0.3458347742897343 1.0000   
         H         H         1.0       0.067522679615037   0.2681270740996456  0.41431684863231893          1.0000   
         H         H         1.0       0.1024555549531283  0.22751211854110667           0.38849878500376783          1.0000   
         H         H         1.0       0.08149030302586135           0.21311288968116562          0.3185937902829863 1.0000   
         C         C         1.0       0.16756028288289138           0.226476151648262  0.5603550992575621 1.0000   
         C         C         1.0       0.1524524473677672  0.22395235877064237           0.592452610004405  1.0000   
         C         C         1.0       0.15298013892937504           0.21063429341668813          0.6335659966174931 1.0000   
         C         C         1.0       0.1679386731787068  0.20008120849599628           0.640845184090068  1.0000   
         C         C         1.0       0.1807756365357064  0.20208653813398456           0.6022004031786621 1.0000   
         C         C         1.0       0.18152364856817974           0.21564405308479223          0.5645320130987902 1.0000   
         H         H         1.0       0.14148177616310958           0.23214274454172454          0.5876675944652727 1.0000   
         H         H         1.0       0.1420530155791738  0.21044775145602168           0.6649476535531317 1.0000   
         H         H         1.0       0.1917702219849854  0.19421188980966753           0.6006578112922252 1.0000   
         H         H         1.0       0.1926202119606657  0.21973303086454238           0.5377476350928752 1.0000   
         C         C         1.0       0.1447870465814683  0.16780157654167502           0.678391631353468  1.0000   
         C         C         1.0       0.1622324452982214  0.1710593370680203  0.6704305843493082 1.0000   
         C         C         1.0       0.17125537687479997           0.16050037959240507          0.6330308848534871 1.0000   
         C         C         1.0       0.16375600153451056           0.1454199066409518 0.6124051303578735 1.0000   
         C         C         1.0       0.1460743036211756  0.14238513436138156           0.6227465092887249 1.0000   
         C         C         1.0       0.13683378064254512           0.15328230877152632          0.6569324156628926 1.0000   
         C         C         1.0       0.17093857029950627           0.18796444414344282          0.6975129788965961 1.0000   
         C         C         1.0       0.16307316583779452           0.19431004207790586          0.7569374457126977 1.0000   
         C         C         1.0       0.16147207145574016           0.21122765693129897          0.7716688351465522 1.0000   
         C         C         1.0       0.1528826223240683  0.21601808462552727           0.8196136784120499 1.0000   
         C         C         1.0       0.1457985678778357  0.20396503159162674           0.8574031584454486 1.0000   
         C         C         1.0       0.14923574384931795           0.1873694233271314 0.8464968483703174 1.0000   
         C         C         1.0       0.15879452926970558           0.18214630933989523          0.8009858117953934 1.0000   
         C         C         1.0       0.19510499527023553           0.16902607075135212          0.7450411463920326 1.0000   
         C         C         1.0       0.21084098678538793           0.1660015075213774 0.7705366274040968 1.0000   
         C         C         1.0       0.22212324914988585           0.17929903721554016          0.7766684819381887 1.0000   
         C         C         1.0       0.2189592389378928  0.19447281079393114           0.7454117750265814 1.0000   
         C         C         1.0       0.20351578927285752           0.1964330600727105 0.7136931225536784 1.0000   
         C         C         1.0       0.1913388422707751  0.18384712211814982           0.7158801077171041 1.0000   
         C         C         1.0       0.24023021795780894           0.17688074432889045          0.8047427730014796 1.0000   
         C         C         1.0       0.247676921375628   0.1434782267804131  0.9537933490559192 1.0000   
         C         C         1.0       0.23246753218371716           0.15281874866831896          0.9467754306146089 1.0000   
         C         C         1.0       0.22942287071123016           0.1622960530091257 0.8995330245264667 1.0000   
         C         C         1.0       0.24277683391251814           0.16423416812332414          0.8578342183901483 1.0000   
         C         C         1.0       0.2579846745747978  0.1554144891497653  0.8684331100534659 1.0000   
         C         C         1.0       0.2605025390509485  0.1450726869889567  0.9151453109420046 1.0000   
         C         C         1.0       0.24480943082614734           0.19375360348893939          0.8447269391101823 1.0000   
         C         C         1.0       0.2613214634648262  0.1971139471495556  0.8627501528028331 1.0000   
         C         C         1.0       0.26568809887904016           0.20984486312140643          0.897686949658083  1.0000   
         C         C         1.0       0.2521308182741451  0.22000847977447963           0.9224888187898312 1.0000   
         C         C         1.0       0.2354836966329616  0.21612039700465263           0.9080938028824473 1.0000   
         C         C         1.0       0.2316649951519689  0.20318631487123645           0.8688063930100227 1.0000   
         C         C         1.0       0.25354084878150274           0.1556364480410766 0.7324317687209494 1.0000   
         C         C         1.0       0.26424533414144313           0.15080154376111038          0.6908442253373527 1.0000   
         C         C         1.0       0.2745405222207785  0.16293488453757396           0.6618085939660986 1.0000   
         C         C         1.0       0.2740215841738298  0.17996909329732774           0.6801898534422376 1.0000   
         C         C         1.0       0.26282895405973244           0.18482098847739675          0.7260678266549738 1.0000   
         C         C         1.0       0.25250995097278806           0.17265111610044437          0.7506130419228676 1.0000   
         H         H         1.0       0.13644174431676687           0.17611722052185771          0.7001073394180372 1.0000   
         H         H         1.0       0.1844731859408956  0.16322357932059903           0.6229146319922353 1.0000   
         H         H         1.0       0.17215010073159268           0.13640966687861314          0.5872201459087294 1.0000   
         H         H         1.0       0.12322811826271973           0.15161320846106693          0.6662659662599573 1.0000   
         H         H         1.0       0.16795602466161058           0.22129947203834172          0.7448958227843157 1.0000   
         H         H         1.0       0.15072653098513808           0.2291648708103298 0.8292933228543684 1.0000   
         H         H         1.0       0.1452668380271688  0.17676963009679653           0.8762636701706448 1.0000   
         H         H         1.0       0.16151268558175827           0.1683472719684284 0.7989801183854679 1.0000   
         H         H         1.0       0.18442843607904277           0.15947242137598558          0.7515263609827525 1.0000   
         H         H         1.0       0.2118094814584564  0.1547083150009487  0.7987738758465891 1.0000   
         H         H         1.0       0.2287108247090262  0.2038659224516706  0.7454681138515705 1.0000   
         H         H         1.0       0.20129746184031294           0.20740404591693565          0.6899379433832579 1.0000   
         H         H         1.0       0.22186407815395445           0.1506861350400219 0.9796518473386092 1.0000   
         H         H         1.0       0.21684747901857854           0.1677826622121463 0.8972468814284426 1.0000   
         H         H         1.0       0.268384418103801   0.1551454541834014  0.8384266561621166 1.0000   
         H         H         1.0       0.2733395524184756  0.14035136368859416           0.9255309764628312 1.0000   
         H         H         1.0       0.27124253705700935           0.188887958798791  0.8505965446931398 1.0000   
         H         H         1.0       0.27912184865348216           0.2108794824242226 0.9127180149633343 1.0000   
         H         H         1.0       0.22513116816004886           0.22362167565599342          0.9278827687017132 1.0000   
         H         H         1.0       0.21821160664394404           0.20076765027623908          0.8593732255596022 1.0000   
         H         H         1.0       0.2461543458683764  0.14623554880969544           0.7547502790105485 1.0000   
         H         H         1.0       0.26598256957891214           0.13719250804871425          0.6776514561330171 1.0000   
         H         H         1.0       0.2815626569047426  0.18890121479699354           0.6527408066528348 1.0000   
         H         H         1.0       0.2624799339353382  0.19775783940094913           0.7415393985575622 1.0000   
         C         C         1.0       0.236677073499511   0.22031722376077953           0.05244777364449371          1.0000   
         C         C         1.0       0.22384096957713795           0.23149365874547118          0.06501646896539248          1.0000   
         C         C         1.0       0.20750822880199207           0.22626727470448593          0.06631490276203955          1.0000   
         C         C         1.0       0.20334623240793046           0.20902776593739578          0.06066237275549158          1.0000   
         C         C         1.0       0.21677736184392593           0.1975417253311999 0.055069067404628136         1.0000   
         C         C         1.0       0.2333940580948822  0.20307842478120022           0.05064792953260144          1.0000   
         H         H         1.0       0.22692877268818537           0.2450124674357883 0.06960287248966379          1.0000   
         H         H         1.0       0.19732592176792163           0.23572567307221193          0.07415957626068348          1.0000   
         H         H         1.0       0.21464069612007372           0.18435299427712046          0.04228079489287251          1.0000   
         H         H         1.0       0.2434957614150301  0.19555772169091218           0.030369879144319878         1.0000   
         C         C         1.0       0.18499727529030593           0.1832397089637815 0.9744694890387429 1.0000   
         C         C         1.0       0.1756666797211179  0.18913937066856185           0.020884620587537484         1.0000   
         C         C         1.0       0.15984287818134077           0.18151787185555993          0.028894697162520355         1.0000   
         C         C         1.0       0.15536037270961803           0.16633690622301534          0.0028038230290254873        1.0000   
         C         C         1.0       0.1655752546872286  0.15983970650877952           0.9620777730877441 1.0000   
         C         C         1.0       0.18036166829851935           0.16845164082458336          0.9451152302044815 1.0000   
         C         C         1.0       0.1831489507385519  0.2034639000955631  0.06220720448864281          1.0000   
         C         C         1.0       0.17121612080028617           0.21935176078349805          0.0430652138749128 1.0000   
         C         C         1.0       0.15987332363291615           0.22733120896119052          0.08277020216306563          1.0000   
         C         C         1.0       0.1519651042504349  0.24241670320677325           0.06767313851309131          1.0000   
         C         C         1.0       0.1552477385332985  0.24999875133809044           0.014470683530114492         1.0000   
         C         C         1.0       0.1653782907117563  0.24133353704605748           0.9738210758104608 1.0000   
         C         C         1.0       0.17448023149016942           0.22753630410481349          0.9911848519601769 1.0000   
         C         C         1.0       0.18337111799742692           0.1814491560323718 0.14894020922872064          1.0000   
         C         C         1.0       0.1843940483500749  0.17797166048889154           0.2073070161606736 1.0000   
         C         C         1.0       0.1868367268269406  0.1911575908424697  0.24818122930528297          1.0000   
         C         C         1.0       0.1868802837560704  0.20747926747648135           0.22806841057371474          1.0000   
         C         C         1.0       0.18503921239074886           0.21092963299711315          0.17218284496214098          1.0000   
         C         C         1.0       0.1827788561135273  0.19802100447153584           0.13046197202517518          1.0000   
         C         C         1.0       0.19023155238961317           0.18648932975730767          0.31391663020186766          1.0000   
         C         C         1.0       0.16041630643480517           0.14381422531524796          0.39362869090947267          1.0000   
         C         C         1.0       0.1762898260618428  0.14941381650996705           0.41645688667742414          1.0000   
         C         C         1.0       0.18513561076602938           0.1632460732464519 0.39063134053239557          1.0000   
         C         C         1.0       0.1791898758270626  0.17031828978467914           0.3396842119001612 1.0000   
         C         C         1.0       0.16420726490290793           0.16391824305421251          0.31652906016297905          1.0000   
         C         C         1.0       0.15499579793458132           0.1510713887743627 0.3425845394482759 1.0000   
         C         C         1.0       0.18266911900734717           0.20076706822161555          0.35376261423968774          1.0000   
         C         C         1.0       0.19302838407910194           0.20926895370700202          0.3934213266184546 1.0000   
         C         C         1.0       0.18807705387559642           0.22367262301886248          0.42472714296048036          1.0000   
         C         C         1.0       0.1711090111177543  0.22782012648673097           0.4251290582306323 1.0000   
         C         C         1.0       0.15913518242729474           0.2198911695482839 0.3870759369405405 1.0000   
         C         C         1.0       0.16542218156158853           0.20645912654777554          0.3527560224222029 1.0000   
         C         C         1.0       0.2216960512788276  0.19786085102094422           0.3073351304005219 1.0000   
         C         C         1.0       0.23936420227503805           0.1960902676310038 0.29459235103019027          1.0000   
         C         C         1.0       0.2454374370029436  0.18010074487081404           0.28485296733371546          1.0000   
         C         C         1.0       0.23491380073207446           0.1658044994183415 0.2911983273358225 1.0000   
         C         C         1.0       0.21761517541592268           0.1674057654202585 0.30234267987702923          1.0000   
         C         C         1.0       0.21059517795171692           0.1838774058166579 0.31100139207866506          1.0000   
         H         H         1.0       0.19688654467410577           0.18844612645982356          0.9615645430427651 1.0000   
         H         H         1.0       0.15156393277231564           0.18792360275284228          0.05779681182920027          1.0000   
         H         H         1.0       0.14423993601965637           0.15915496139736804          0.016508340702480417         1.0000   
         H         H         1.0       0.1889103313339723  0.16396612923392712           0.9145631523184403 1.0000   
         H         H         1.0       0.15662498714911152           0.22051113656388271          0.12263583200365247          1.0000   
         H         H         1.0       0.14371537302525764           0.25011455963787   0.10057704013660484          1.0000   
         H         H         1.0       0.16648502663889053           0.24565765121040958          0.9316270279575987 1.0000   
         H         H         1.0       0.1830835206175392  0.22107045518041407           0.9616223405722868 1.0000   
         H         H         1.0       0.18195597414272574           0.1705177682813642 0.11861230966511882          1.0000   
         H         H         1.0       0.18462117133604508           0.16464225023280096          0.22280765282702575          1.0000   
         H         H         1.0       0.19144047860310864           0.2181246614034172 0.25560502493038384          1.0000   
         H         H         1.0       0.1859983362973305  0.224443723340552   0.15856591992120617          1.0000   
         H         H         1.0       0.1812181521530009  0.14584797137952074           0.45829922528169525          1.0000   
         H         H         1.0       0.1967458757067505  0.16795315203789646           0.4096256428819569 1.0000   
         H         H         1.0       0.15857851488657634           0.16918510788915472          0.27764228625343224          1.0000   
         H         H         1.0       0.14228543692124046           0.14798246744822183          0.32250570975071247          1.0000   
         H         H         1.0       0.2048446748997299  0.20307279769688474           0.4063644863219132 1.0000   
         H         H         1.0       0.19706786420656427           0.22943695644298415          0.45453668453894547          1.0000   
         H         H         1.0       0.14634509581169275           0.22458607417514007          0.3798848353996024 1.0000   
         H         H         1.0       0.15669469370638678           0.1990229908284869 0.3263715144093335 1.0000   
         H         H         1.0       0.21750948972715503           0.21098022070494662          0.3075303123335779 1.0000   
         H         H         1.0       0.24654937820575862           0.2071288711127577 0.2826780831064116 1.0000   
         H         H         1.0       0.23979239384321188           0.15412300739055015          0.27994556862892095          1.0000   
         H         H         1.0       0.210754093828111   0.15567369692442548           0.3053562092101616 1.0000   
         C         C         1.0       0.12315653272344962           0.014942391290660328         0.5802800852286797 1.0000   
         C         C         1.0       0.10984542867900715           0.0095299532878792 0.5462470418394143 1.0000   
         C         C         1.0       0.09754552236048841           0.02134763258654382          0.5274246355650901 1.0000   
         C         C         1.0       0.09927280622967638           0.03896380871801175          0.5396706237392521 1.0000   
         C         C         1.0       0.11345753755769206           0.0441654455297491 0.5693351693811977 1.0000   
         C         C         1.0       0.12479939843942289           0.0322461413927031 0.5944470143690828 1.0000   
         H         H         1.0       0.10883306535803072           0.996902008030927  0.5286971464020349 1.0000   
         H         H         1.0       0.08705329678741247           0.017197838309621627         0.5016252535692706 1.0000   
         H         H         1.0       0.11702128065545336           0.05721287072358483          0.5721959026708744 1.0000   
         H         H         1.0       0.13548412237432061           0.03706035534050489          0.6155759513079209 1.0000   
         C         C         1.0       0.09023387760586399           0.07479738976587602          0.5978087537595693 1.0000   
         C         C         1.0       0.0859516567429568  0.07125653815473654           0.5427860561266936 1.0000   
         C         C         1.0       0.07858697098858936           0.08431940682250882          0.5096732905054321 1.0000   
         C         C         1.0       0.07832394395561271           0.10072934556036794          0.5304115073686201 1.0000   
         C         C         1.0       0.08434141866586664           0.10475815121528953          0.5854922990652492 1.0000   
         C         C         1.0       0.08873502951535928           0.09097105450862064          0.6190551861828025 1.0000   
         C         C         1.0       0.08585457742033942           0.052079328619019094         0.5186394703193076 1.0000   
         C         C         1.0       0.06594324055638912           0.045665077115249586         0.5331683525556721 1.0000   
         C         C         1.0       0.05179144752543352           0.050827488366782525         0.4993259510301569 1.0000   
         C         C         1.0       0.035343759643542416          0.04530201841617654          0.5149074327770492 1.0000   
         C         C         1.0       0.03307352363860416           0.03495916048683845          0.5646726681182999 1.0000   
         C         C         1.0       0.04700884628454571           0.03071678332384442          0.5977994687069457 1.0000   
         C         C         1.0       0.062435014422800084          0.036120928839996846         0.5826444538337993 1.0000   
         C         C         1.0       0.10367393560055227           0.06355240232533443          0.4307841337798233 1.0000   
         C         C         1.0       0.10352963533206028           0.06822702386602875          0.3720383283632317 1.0000   
         C         C         1.0       0.09117766831308116           0.06168394058340021          0.3365660292867083 1.0000   
         C         C         1.0       0.08243221020120584           0.04686159533990564          0.3539637129143738 1.0000   
         C         C         1.0       0.08219430833397956           0.043350297666663984         0.41248801656497036          1.0000   
         C         C         1.0       0.09131116388536431           0.05251882160609633          0.4535285470447979 1.0000   
         C         C         1.0       0.08436175021250047           0.0728077199400905 0.28450863157698386          1.0000   
         C         C         1.0       0.07599266550897021           0.12900032477852896          0.3087793343921085 1.0000   
         C         C         1.0       0.07800642911834021           0.12123716863916822          0.2537507928999415 1.0000   
         C         C         1.0       0.08211309937050437           0.10401774993656776          0.2466579895499426 1.0000   
         C         C         1.0       0.08384541934729528           0.09353866518861498          0.2936404021557309 1.0000   
         C         C         1.0       0.08029311917662163           0.10116730045541189          0.34832425335882955          1.0000   
         C         C         1.0       0.07727821102545529           0.11835080463638503          0.35458686559971503          1.0000   
         C         C         1.0       0.06400337559628588           0.07088640633010157          0.27772939473679153          1.0000   
         C         C         1.0       0.05299699037495231           0.07192743974819926          0.324913045130966  1.0000   
         C         C         1.0       0.03544717817698828           0.07051456553984892          0.3184714715449935 1.0000   
         C         C         1.0       0.02835624873337661           0.0676452450961944 0.2644416333932198 1.0000   
         C         C         1.0       0.03933641779515362           0.0691413132953762 0.21831387782802777          1.0000   
         C         C         1.0       0.05662397312076051           0.07146995119329769          0.22462060621012772          1.0000   
         C         C         1.0       0.09227808766787882           0.05243845931206059          0.2005157243339363 1.0000   
         C         C         1.0       0.10416344756784457           0.04616850092388214          0.15962091303850645          1.0000   
         C         C         1.0       0.11920018187256964           0.05548723758937468          0.14818550156980081          1.0000   
         C         C         1.0       0.12343108409077463           0.0693847179978817 0.17984731653185215          1.0000   
         C         C         1.0       0.11242719411266866           0.07405843491500175          0.22433276783183048          1.0000   
         C         C         1.0       0.09650979957753059           0.06566649241370759          0.23428927714571238          1.0000   
         H         H         1.0       0.09317231682762572           0.06448611271511351          0.628936664086362  1.0000   
         H         H         1.0       0.07472761181633203           0.08232962079181139          0.4657514394467709 1.0000   
         H         H         1.0       0.07373978187482733           0.11094155552244267          0.5044234875184582 1.0000   
         H         H         1.0       0.09314201102812336           0.09302125982443976          0.6622201663464838 1.0000   
         H         H         1.0       0.05407065633600494           0.05816827803155111          0.4603817026825507 1.0000   
         H         H         1.0       0.024223238671965408          0.0481076289021094 0.4860834944370831 1.0000   
         H         H         1.0       0.045885635403800196          0.02388073497232024          0.6371338780940339 1.0000   
         H         H         1.0       0.07251500288800128           0.032929066331685464         0.6117387769471111 1.0000   
         H         H         1.0       0.11176113593200743           0.07071374856965162          0.45821997401909126          1.0000   
         H         H         1.0       0.11274152141080873           0.07809970675681432          0.35650927305203606          1.0000   
         H         H         1.0       0.07302953796515399           0.04156440350391688          0.3244936487195565 1.0000   
         H         H         1.0       0.0715996421121341  0.03591360749654382           0.4296839229481555 1.0000   
         H         H         1.0       0.07735023956765485           0.12926701106857785          0.2167650996417585 1.0000   
         H         H         1.0       0.0830737558238539  0.0976161443260235  0.20850199767549274          1.0000   
         H         H         1.0       0.08210012378631037           0.09510596686638628          0.3871635201197399 1.0000   
         H         H         1.0       0.0732085027994216  0.12359498030855856           0.3991316989817679 1.0000   
         H         H         1.0       0.05828637863093089           0.07298371998734487          0.36944045484192206          1.0000   
         H         H         1.0       0.02692841768063614           0.0704550155733854 0.35383993086790433          1.0000   
         H         H         1.0       0.034051263455070924          0.06974703164745288          0.17479782557226206          1.0000   
         H         H         1.0       0.06429713083455924           0.07518582240446103          0.18832743154718184          1.0000   
         H         H         1.0       0.07997812595358811           0.04591142579310459          0.20595479525057367          1.0000   
         H         H         1.0       0.10178416354615671           0.034999053624262144         0.13851270469232202          1.0000   
         H         H         1.0       0.13445723180262248           0.07712527476662379          0.16863395819466942          1.0000   
         H         H         1.0       0.11818382101294689           0.08428095079921083          0.25182019581331216          1.0000   
         C         C         1.0       0.12086547099177003           0.07330338473405007          0.7507247580543147 1.0000   
         C         C         1.0       0.10732587548073136           0.06296619971904738          0.7637047866436576 1.0000   
         C         C         1.0       0.09671842008139953           0.06708720442583993          0.809968801120624  1.0000   
         C         C         1.0       0.09951160976251394           0.08252292407000095          0.8385955457608986 1.0000   
         C         C         1.0       0.1141084679410338  0.09254658992784393           0.8253428008624706 1.0000   
         C         C         1.0       0.12523251373211508           0.08800531085479424          0.7811744973786446 1.0000   
         H         H         1.0       0.1053742962227775  0.05070557106235363           0.7416816767584766 1.0000   
         H         H         1.0       0.08573806230517578           0.05868637686457401          0.8156264503390943 1.0000   
         H         H         1.0       0.11788543436881671           0.10322568081254135          0.8504573230304915 1.0000   
         H         H         1.0       0.13736799541742806           0.09378327673145459          0.7749588875265054 1.0000   
         C         C         1.0       0.08025876539657806           0.11580838555223649          0.947920142890601  1.0000   
         C         C         1.0       0.08628901535670508           0.10941468461821735          0.8955474019915995 1.0000   
         C         C         1.0       0.08918134557980317           0.12090110166893031          0.8515634863581613 1.0000   
         C         C         1.0       0.08737089736166692           0.13809634248632952          0.8627698645596423 1.0000   
         C         C         1.0       0.08170050135508111           0.14476405112779786          0.9157417246247113 1.0000   
         C         C         1.0       0.07728239648581181           0.13283439686910148          0.9565386221796004 1.0000   
         C         C         1.0       0.08599307087665586           0.08984430839663582          0.8844560889997015 1.0000   
         C         C         1.0       0.09480241174548865           0.07861516700584859          0.9352684134644158 1.0000   
         C         C         1.0       0.08731894535229512           0.06385325242500706          0.9574673288276732 1.0000   
         C         C         1.0       0.09644837120201077           0.053021899100321956         0.9948804994766719 1.0000   
         C         C         1.0       0.11217032267003613           0.05735573000648819          0.013846596118607168         1.0000   
         C         C         1.0       0.11831356609032362           0.07404025642620127          0.002685646390545804         1.0000   
         C         C         1.0       0.1096495193945477  0.08407845017832138           0.9614368333092935 1.0000   
         C         C         1.0       0.061323099330460984          0.08691240366832487          0.8122175355237183 1.0000   
         C         C         1.0       0.04489832977691344           0.08339655333481377          0.7976627638923357 1.0000   
         C         C         1.0       0.03275282255478462           0.07862323446558528          0.839457980147744  1.0000   
         C         C         1.0       0.03803601458191319           0.07955313084146032          0.8968017874563847 1.0000   
         C         C         1.0       0.05401701865929209           0.08580408406953755          0.9116266647368761 1.0000   
         C         C         1.0       0.066505344130118   0.08624674448070868           0.8707533806477842 1.0000   
         C         C         1.0       0.012567744528769298          0.0762225523786082 0.8218696581731024 1.0000   
         C         C         1.0       0.9909823082749545  0.12826683608633924           0.8327123457936998 1.0000   
         C         C         1.0       0.001458164935261852          0.12370110658885225          0.7844838464184631 1.0000   
         C         C         1.0       0.00792848479390873           0.10704620847868074          0.7811461965575904 1.0000   
         C         C         1.0       0.005705554856643813          0.0953732239764844 0.825910046428917  1.0000   
         C         C         1.0       0.9972826853167922  0.10097039114297224           0.8749764751481343 1.0000   
         C         C         1.0       0.989010928638777   0.11667145593775063           0.8759071798061369 1.0000   
         C         C         1.0       0.002355622945855007          0.06316650960339154          0.8592018597698768 1.0000   
         C         C         1.0       0.011265925298090007          0.05070329015847608          0.8915959784080324 1.0000   
         C         C         1.0       0.0024047883817510662         0.03843804385279448          0.922658372453192  1.0000   
         C         C         1.0       0.9846483871924719  0.037142000121222374         0.9185152573989775 1.0000   
         C         C         1.0       0.9762238758750721  0.04897767364004624           0.8893545652117553 1.0000   
         C         C         1.0       0.984468602341977   0.06122562657294606           0.8559555635522514 1.0000   
         C         C         1.0       0.9974053272117598  0.07122213455138415           0.7226987380911247 1.0000   
         C         C         1.0       0.9954327405135316  0.06179732906739588           0.6717750929822921 1.0000   
         C         C         1.0       0.00685206019895479           0.04853170770182347          0.6583904187874133 1.0000   
         C         C         1.0       0.01838589314241368           0.043891749333077934         0.699590444642613  1.0000   
         C         C         1.0       0.020977058143061722          0.05355738377078989          0.7455860274802125 1.0000   
         C         C         1.0       0.01072232501297532           0.06709234702215405          0.7599654511419897 1.0000   
         H         H         1.0       0.07848000283073708           0.10735015650272284          0.9877475329418596 1.0000   
         H         H         1.0       0.0895838605703565  0.11727218414600582           0.8063624875314548 1.0000   
         H         H         1.0       0.0906630738047145  0.14793318254286406           0.8312003511524064 1.0000   
         H         H         1.0       0.07309058382718603           0.13540217249011866          0.9995056955624131 1.0000   
         H         H         1.0       0.07626881125453022           0.059274910399864655         0.933384733483884  1.0000   
         H         H         1.0       0.09061480444426473           0.040730872240375415         0.0012662565953305283        1.0000   
         H         H         1.0       0.13039300519893082           0.07810669590092134          0.02068310012058916          1.0000   
         H         H         1.0       0.11605110921001915           0.0950158772842733 0.948246790797567  1.0000   
         H         H         1.0       0.07154306536932009           0.09000638468443323          0.7801004571853607 1.0000   
         H         H         1.0       0.041378477453957174          0.08533494344610326          0.7505278200387253 1.0000   
         H         H         1.0       0.02834029248851544           0.07830249026191338          0.9295381001688785 1.0000   
         H         H         1.0       0.05743867461872676           0.08528605333374983          0.9559743194134481 1.0000   
         H         H         1.0       0.0031784268958967576         0.13296750684308187          0.7529593052668967 1.0000   
         H         H         1.0       0.017344532047333328          0.1040112878081747 0.7465800429842051 1.0000   
         H         H         1.0       0.9963661710347651  0.09389442223277111           0.9124866002811929 1.0000   
         H         H         1.0       0.9821968756986741  0.12134595644935353           0.9133106972735081 1.0000   
         H         H         1.0       0.024863096699092146          0.05076946083811462          0.8872936969586126 1.0000   
         H         H         1.0       0.009185663933635402          0.0286089626252779 0.9424967425459005 1.0000   
         H         H         1.0       0.9618909344219415  0.050046982036259235         0.8862198740989728 1.0000   
         H         H         1.0       0.9776251491469556  0.0686360793762224  0.8232765439995449 1.0000   
         H         H         1.0       0.9889467144362646  0.08213768249396525           0.7347161836921063 1.0000   
         H         H         1.0       0.9844290981719759  0.06383851172863597           0.6433382499254777 1.0000   
         H         H         1.0       0.023676127621247378          0.03133836300850201          0.6989250686759143 1.0000   
         H         H         1.0       0.03234597272949857           0.04988563375437005          0.7729460286072728 1.0000   
         C         C         1.0       0.2506459340459383  0.06695445943551381           0.5971164340903498 1.0000   
         C         C         1.0       0.241886983009114   0.05118877783013187           0.5922548550097896 1.0000   
         C         C         1.0       0.2250145784612623  0.04994720485274984           0.5786545453196184 1.0000   
         C         C         1.0       0.21570598819972597           0.06538582278651961          0.5705084459428107 1.0000   
         C         C         1.0       0.22365778443503442           0.08075480737541496          0.58192448589613   1.0000   
         C         C         1.0       0.24083067110971812           0.08183764035474606          0.5943977383125627 1.0000   
         H         H         1.0       0.2483473655519864  0.03916645597257484           0.5985476703093233 1.0000   
         H         H         1.0       0.2192313108818663  0.036928563960453076         0.5728394793329409 1.0000   
         H         H         1.0       0.21693173180308534           0.09234115607399906          0.5703402171021003 1.0000   
         H         H         1.0       0.24677401553252412           0.09394875492005994          0.5963104012644903 1.0000   
         C         C         1.0       0.18401160051948176           0.08655833726882656          0.6162233603668643 1.0000   
         C         C         1.0       0.18298137273037024           0.07862583749389174          0.5618575068255856 1.0000   
         C         C         1.0       0.1675037743121053  0.0811918163163925  0.5305860280164505 1.0000   
         C         C         1.0       0.1553816325966879  0.0928212995057156  0.5531557893629693 1.0000   
         C         C         1.0       0.15716208523909692           0.10077324241199292          0.6047205670028861 1.0000   
         C         C         1.0       0.17085397185012632           0.09663217564782323          0.6390190300210086 1.0000   
         C         C         1.0       0.1962483799024691  0.06462812850698318           0.5445639859693631 1.0000   
         C         C         1.0       0.1851581264550779  0.047739118700866   0.5678425207039396 1.0000   
         C         C         1.0       0.17302057154120765           0.03978979775368918          0.5315415622002894 1.0000   
         C         C         1.0       0.16422218049066348           0.02665803785276677          0.5514085141748033 1.0000   
         C         C         1.0       0.16609537448451347           0.019464604270624353         0.6037045242098731 1.0000   
         C         C         1.0       0.17908695081807333           0.026507923827662427         0.6373674379024682 1.0000   
         C         C         1.0       0.18835620102745546           0.040844517475010944         0.6220822548078973 1.0000   
         C         C         1.0       0.20079236498761396           0.08132846636717694          0.4464198126535424 1.0000   
         C         C         1.0       0.2008159370062431  0.08121542012841632           0.38738664944907436          1.0000   
         C         C         1.0       0.19768563695848015           0.06616649037287203          0.3575222954282856 1.0000   
         C         C         1.0       0.20018604727402353           0.051143824646867175         0.3877467316680849 1.0000   
         C         C         1.0       0.20303555148919475           0.05095271231539211          0.44548682750059676          1.0000   
         C         C         1.0       0.20156104631446164           0.06561275810815292          0.47740899190423947          1.0000   
         C         C         1.0       0.18851796520187708           0.06669007724114051          0.2945129967446323 1.0000   
         C         C         1.0       0.15175976173465872           0.10473580623649871          0.3507899954617202 1.0000   
         C         C         1.0       0.16378080450965024           0.10899922583416566          0.3098919835444795 1.0000   
         C         C         1.0       0.17373076116070363           0.09709736847212014          0.2850214730655133 1.0000   
         C         C         1.0       0.172114641355319   0.07978571615582197           0.29833411796102055          1.0000   
         C         C         1.0       0.1603990005979267  0.07608479455744654           0.34302852745889273          1.0000   
         C         C         1.0       0.15076074626149638           0.0882833095729938 0.3673015915424918 1.0000   
         C         C         1.0       0.1826563310854917  0.04745707221828521           0.27080527468301424          1.0000   
         C         C         1.0       0.19553547111104533           0.03700090301273273          0.25384633694565095          1.0000   
         C         C         1.0       0.19184004156185894           0.021218027691607855         0.22870674143939018          1.0000   
         C         C         1.0       0.17516960050140096           0.017233408308324094         0.21545134948251943          1.0000   
         C         C         1.0       0.16200017807492426           0.02787628373990736          0.23338472200017168          1.0000   
         C         C         1.0       0.1659835266275163  0.042908075281058666         0.25611847408827604          1.0000   
         C         C         1.0       0.19528997151606337           0.07585651326793164          0.1893410873689129 1.0000   
         C         C         1.0       0.20522810155870455           0.08157730785394679          0.14710268514896788          1.0000   
         C         C         1.0       0.2215647801624986  0.08654537367865722           0.1595802259017297 1.0000   
         C         C         1.0       0.22874274399332337           0.08404864784064037          0.21276588104959254          1.0000   
         C         C         1.0       0.2185306863279047  0.07758295331014997           0.2560448761523488 1.0000   
         C         C         1.0       0.200928131078252   0.0741378825855663  0.245400610234839  1.0000   
         H         H         1.0       0.19485523572802957           0.08271431649744687          0.6465320786394649 1.0000   
         H         H         1.0       0.16472916272766733           0.075685269967247  0.4892539208909523 1.0000   
         H         H         1.0       0.14300050003360668           0.09286243842801124          0.5307599236212762 1.0000   
         H         H         1.0       0.17278362916733328           0.10177505528282005          0.6792979027392695 1.0000   
         H         H         1.0       0.1711546061351552  0.04388786406390577           0.48667499769192923          1.0000   
         H         H         1.0       0.1551334864533775  0.021797951531661308         0.5182620072525534 1.0000   
         H         H         1.0       0.18016020355344456           0.02130847099243316          0.6804637448691792 1.0000   
         H         H         1.0       0.19822171464608265           0.04677173746711971          0.6496616101510244 1.0000   
         H         H         1.0       0.1990499800942507  0.09249573347992768           0.4693210865781118 1.0000   
         H         H         1.0       0.19878245326379038           0.09300632972669698          0.36335396962619465          1.0000   
         H         H         1.0       0.19979442240179188           0.03848277402226441          0.36854171197449687          1.0000   
         H         H         1.0       0.20524545444147826           0.03975610507663219          0.47290364183665434          1.0000   
         H         H         1.0       0.16513830676247257           0.1226961113455357 0.2974787388992082 1.0000   
         H         H         1.0       0.18256878116350686           0.1009417526365961 0.25010105790079373          1.0000   
         H         H         1.0       0.15928927730950554           0.06229424915080872          0.3549415215382087 1.0000   
         H         H         1.0       0.1422253934687374  0.08467073699623784           0.4013964845101982 1.0000   
         H         H         1.0       0.20813591232976664           0.04110311807212663          0.25382571999905373          1.0000   
         H         H         1.0       0.20321392370828356           0.01408154643055437          0.20993431833756415          1.0000   
         H         H         1.0       0.14893768438238283           0.025884878410298295         0.22005827709405668          1.0000   
         H         H         1.0       0.15643538115144864           0.052567264680968506         0.2578335373993619 1.0000   
         H         H         1.0       0.1823413357068847  0.07242393061920405           0.18092928242013198          1.0000   
         H         H         1.0       0.1995070654360477  0.08324058379697608           0.10601634087684886          1.0000   
         H         H         1.0       0.24263363020067716           0.08457715821438105          0.22356549252000596          1.0000   
         H         H         1.0       0.22347494902247678           0.07556811146864417          0.30001411872823325          1.0000   
         C         C         1.0       0.1790094390163739  0.018792963812827468         0.06755954047884294          1.0000   
         C         C         1.0       0.18198412806659806           0.014449462386851186         0.010269969703420978         1.0000   
         C         C         1.0       0.18251244811225267           0.02670886134699635          0.9662859978448449 1.0000   
         C         C         1.0       0.18116039775572687           0.04412081121739386          0.978106516295819  1.0000   
         C         C         1.0       0.1798108557644701  0.048472082055535326         0.0365821721268027 1.0000   
         C         C         1.0       0.1784513018047344  0.03646762881208798           0.0813770812759873 1.0000   
         H         H         1.0       0.1841546463461922  0.0012383266603079868        0.9984595856554587 1.0000   
         H         H         1.0       0.18463727951365244           0.02259491991132867          0.9227491686529175 1.0000   
         H         H         1.0       0.18033490141828368           0.06153835859019474          0.05126294003115239          1.0000   
         H         H         1.0       0.1766017407885755  0.040281018645237365         0.12326792593121771          1.0000   
         C         C         1.0       0.16590528974907154           0.08227104198235957          0.9600227482371568 1.0000   
         C         C         1.0       0.18298663952311572           0.07594987896439265          0.9481714828242114 1.0000   
         C         C         1.0       0.1963622989295191  0.08814126182752813           0.9505486083096005 1.0000   
         C         C         1.0       0.1929720320332084  0.10505184388658972           0.9607392606845915 1.0000   
         C         C         1.0       0.17665953986725808           0.11042902147316004          0.972119849026016  1.0000   
         C         C         1.0       0.16360010666894256           0.09880198064776957          0.9729153511252607 1.0000   
         C         C         1.0       0.18608848525900157           0.057059233884609206         0.9291156762929687 1.0000   
         C         C         1.0       0.17457065160246146           0.05524477229244651          0.8714853135248593 1.0000   
         C         C         1.0       0.17709315991474792           0.06797050738031518          0.8294016492423861 1.0000   
         C         C         1.0       0.16779502368626661           0.06737234717511997          0.7792241834831884 1.0000   
         C         C         1.0       0.15487884705652316           0.05609504042912383          0.7718190889295794 1.0000   
         C         C         1.0       0.15156996691912192           0.04440725872748086          0.8127037300511839 1.0000   
         C         C         1.0       0.1603398149832949  0.0440980663925028  0.8649345277946788 1.0000   
         C         C         1.0       0.2173114263866244  0.04889221048127079           0.95778785718265   1.0000   
         C         C         1.0       0.2344229843946599  0.05025429903398182           0.947539292498909  1.0000   
         C         C         1.0       0.24092315658363284           0.05060009713673863          0.8925760878511488 1.0000   
         C         C         1.0       0.22926235019289304           0.05073623805384053          0.8487641935435711 1.0000   
         C         C         1.0       0.21191323804656334           0.051018429258079756         0.8588933414037976 1.0000   
         C         C         1.0       0.2055812235210545  0.05261077612501097           0.9121887334362877 1.0000   
         C         C         1.0       0.2619087638666549  0.05374262600136537           0.8813954058786717 1.0000   
         C         C         1.0       0.26508356905693214           0.10264375598078802          0.9709245206001962 1.0000   
         C         C         1.0       0.2740235109380433  0.08934098929621159           0.9896744470624332 1.0000   
         C         C         1.0       0.27166554926540787           0.07388104550984531          0.964886207956848  1.0000   
         C         C         1.0       0.263385222146266   0.07163749460598301           0.9128933551388623 1.0000   
         C         C         1.0       0.2544568644358158  0.08616221702662386           0.8949662718149477 1.0000   
         C         C         1.0       0.2556062231854889  0.10146383885066257           0.9225905392218972 1.0000   
         C         C         1.0       0.2666450203294664  0.054131724455849906         0.8143686990763408 1.0000   
         C         C         1.0       0.26320025047670303           0.04001175749940988          0.7791218112069156 1.0000   
         C         C         1.0       0.2677565506727103  0.039941464473236765         0.7217057082279953 1.0000   
         C         C         1.0       0.2750619733865669  0.05400837700494976           0.6989931079777962 1.0000   
         C         C         1.0       0.28022235659638456           0.06801358172202487          0.7332462998776872 1.0000   
         C         C         1.0       0.276928271314713   0.06733527714120258           0.7907591471924637 1.0000   
         C         C         1.0       0.29075154984172036           0.040379168887459294         0.9157253161141723 1.0000   
         C         C         1.0       0.29953620803343806           0.028186667809250165         0.9440102216879339 1.0000   
         C         C         1.0       0.2921832744268837  0.012057305214224545         0.9527529344543995 1.0000   
         C         C         1.0       0.27568160749695625           0.008998307007404671         0.9370850204433268 1.0000   
         C         C         1.0       0.26559911868630814           0.022156351913518613         0.9140943882573359 1.0000   
         C         C         1.0       0.27320019526296796           0.03837524095871325          0.9065572751967218 1.0000   
         H         H         1.0       0.15485236041369627           0.07306339099728776          0.9603206326636142 1.0000   
         H         H         1.0       0.20983965795304643           0.08561678706420861          0.9356297528439315 1.0000   
         H         H         1.0       0.20358728037065765           0.11335156314792162          0.955115067521353  1.0000   
         H         H         1.0       0.1511439728880212  0.10303007022766697           0.9856518203168173 1.0000   
         H         H         1.0       0.18725460453698484           0.07782904090541476          0.8309830767149761 1.0000   
         H         H         1.0       0.16976898552170183           0.07815954224744681          0.7493821282510684 1.0000   
         H         H         1.0       0.14137868079657462           0.03656637041543531          0.8084457232436297 1.0000   
         H         H         1.0       0.15673720713339812           0.03424917427560237          0.8970086078653142 1.0000   
         H         H         1.0       0.21404112513367277           0.04587881671467109          0.9997586927261815 1.0000   
         H         H         1.0       0.24267357148836832           0.046707456965869865         0.981493572313874  1.0000   
         H         H         1.0       0.23290447599852657           0.049991084015789555         0.8019494998971469 1.0000   
         H         H         1.0       0.2037901912612018  0.04938287417575338           0.8216493357559258 1.0000   
         H         H         1.0       0.28131148985506854           0.09088050221667632          0.03011563083709068          1.0000   
         H         H         1.0       0.27839384571879283           0.0625126897945707 0.984032726405402  1.0000   
         H         H         1.0       0.24878898707378896           0.08659505896249264          0.8524986978312807 1.0000   
         H         H         1.0       0.24739531084140493           0.11156929163938024          0.901218410691773  1.0000   
         H         H         1.0       0.25732727096838515           0.02731955082890436          0.7934919345155025 1.0000   
         H         H         1.0       0.2629826881603168  0.030967206353875287         0.6946298460376377 1.0000   
         H         H         1.0       0.2861133659329065  0.08040071449029451           0.7180748622788152 1.0000   
         H         H         1.0       0.2813249350009608  0.07764952894670918           0.8177159484478175 1.0000   
         H         H         1.0       0.2969885953433154  0.05122371567037165           0.8965597712761616 1.0000   
         H         H         1.0       0.3123220691995943  0.029970364957890627         0.9579163202814325 1.0000   
         H         H         1.0       0.269299904663682   0.99617281758542    0.9448694284331811 1.0000   
         H         H         1.0       0.25209374384973915           0.01903914434506082          0.9023538348246333 1.0000   
         C         C         1.0       0.6371125868627132  0.2100008128692066  0.4963613352002212 1.0000   
         C         C         1.0       0.648754178151297   0.22303933695215492           0.49788462683572354          1.0000   
         C         C         1.0       0.6662434724832962  0.21952205565966285           0.5014788235892954 1.0000   
         C         C         1.0       0.6722533648648448  0.20267022187829625           0.5040922799926417 1.0000   
         C         C         1.0       0.6597520413298968  0.18996139552217667           0.5048226691755262 1.0000   
         C         C         1.0       0.642584683037278   0.19311693372769773           0.49977468455862234          1.0000   
         H         H         1.0       0.6458301852960778  0.2369540168137473  0.49678579288606456          1.0000   
         H         H         1.0       0.6739698728816683  0.23040579930833563           0.5039452404411079 1.0000   
         H         H         1.0       0.6636916791872677  0.17572863639793668           0.5037281421193475 1.0000   
         H         H         1.0       0.634224458362992   0.18250022419982512           0.49693496591540465          1.0000   
         C         C         1.0       0.6917704165817481  0.17833009893262694           0.5929751414195675 1.0000   
         C         C         1.0       0.7002733484813632  0.18506540913103886           0.5460321367618924 1.0000   
         C         C         1.0       0.7170752922168634  0.18054260324296229           0.5374164866434059 1.0000   
         C         C         1.0       0.7258405339650851  0.1706176418786588  0.5765626769484566 1.0000   
         C         C         1.0       0.7171654682587456  0.16410546549090074           0.6242487836738834 1.0000   
         C         C         1.0       0.6992612872184859  0.16709742975244107           0.6280999772491984 1.0000   
         C         C         1.0       0.6923257323779833  0.19980203598521765           0.5092509352604992 1.0000   
         C         C         1.0       0.7015858349049339  0.21514395471542355           0.5427103583953748 1.0000   
         C         C         1.0       0.7175550601541656  0.22153959675904106           0.5229717518420521 1.0000   
         C         C         1.0       0.7273723295657125  0.2322773438919334  0.5556291683558341 1.0000   
         C         C         1.0       0.7223871644873181  0.23694326944845984           0.610693914003374  1.0000   
         C         C         1.0       0.7068669853315077  0.2293969810412145  0.6327440241640561 1.0000   
         C         C         1.0       0.69670007526219    0.21941443208444664           0.5982545366532942 1.0000   
         C         C         1.0       0.69851789162888    0.18293889755141088           0.4163678279675877 1.0000   
         C         C         1.0       0.7023606805224596  0.18116675656944212           0.3592938215652765 1.0000   
         C         C         1.0       0.7051972999610111  0.19580604808743665           0.325170309871474  1.0000   
         C         C         1.0       0.700302860278261   0.21164856596483925           0.3496093026223458 1.0000   
         C         C         1.0       0.6968152705435219  0.21380949508745842           0.4060649039007209 1.0000   
         C         C         1.0       0.6962613436997421  0.19916725482857175           0.4403913125612094 1.0000   
         C         C         1.0       0.7148873195360667  0.19389558778600474           0.26416681242299916          1.0000   
         C         C         1.0       0.7530904390724293  0.15343947583552484           0.2437274740621129 1.0000   
         C         C         1.0       0.7427487036869101  0.15714005332121464           0.1978801021984712 1.0000   
         C         C         1.0       0.7295328901747202  0.1690139736508504  0.20551966909053077          1.0000   
         C         C         1.0       0.7274206445278389  0.177642476063006   0.2599322716774204 1.0000   
         C         C         1.0       0.7382891749368758  0.1735591832137098  0.30050399801966476          1.0000   
         C         C         1.0       0.7508128979860326  0.1614570644808693  0.29448598190648306          1.0000   
         C         C         1.0       0.7269788797063944  0.20893641314363376           0.2456589466709281 1.0000   
         C         C         1.0       0.73468575179681    0.21955063452848547           0.2869995463405166 1.0000   
         C         C         1.0       0.7460719947766855  0.23188059915963852           0.2726764063941347 1.0000   
         C         C         1.0       0.7481876737852152  0.23564145053766852           0.21569739109182953          1.0000   
         C         C         1.0       0.7414995979734826  0.22547768310569918           0.17213421487625236          1.0000   
         C         C         1.0       0.7322164010196415  0.21139726410255197           0.18793027931065634          1.0000   
         C         C         1.0       0.6915079101154091  0.20617735833953804           0.19453681846785295          1.0000   
         C         C         1.0       0.6761993706496797  0.20490677455155    0.1610782486275604 1.0000   
         C         C         1.0       0.6680941510358264  0.1890202683505055  0.1589713206087023 1.0000   
         C         C         1.0       0.6746416503520964  0.17553388665996397           0.18663088371191675          1.0000   
         C         C         1.0       0.688891858885353   0.17740040636916632           0.218916961200499  1.0000   
         C         C         1.0       0.6980584979968474  0.19213868576777823           0.22120320082310144          1.0000   
         H         H         1.0       0.6791932490644345  0.18290161460222223           0.6067067132341037 1.0000   
         H         H         1.0       0.7249992396738054  0.18632825613925544           0.5012341295498103 1.0000   
         H         H         1.0       0.7379050901748652  0.16559102712340654           0.5689462363293669 1.0000   
         H         H         1.0       0.6926865132164508  0.16294590047446184           0.6667348016539935 1.0000   
         H         H         1.0       0.721824480141109   0.21783214850849725           0.48044198280399675          1.0000   
         H         H         1.0       0.7389505776914462  0.2366790570087821  0.5366963233211143 1.0000   
         H         H         1.0       0.7034354659409228  0.23333668870604174           0.6751657463532449 1.0000   
         H         H         1.0       0.6856518797856263  0.21251275444646556           0.6177016061073469 1.0000   
         H         H         1.0       0.6974776141571238  0.17121978975399033           0.44242063567999457          1.0000   
         H         H         1.0       0.7067111673058293  0.16893178075774853           0.3494674042805224 1.0000   
         H         H         1.0       0.7001843003578574  0.22243067772417358           0.3215645671941286 1.0000   
         H         H         1.0       0.6971113370387406  0.22686528100463427           0.42226668717672816          1.0000   
         H         H         1.0       0.7450301988730031  0.15102252513623696           0.15529428833364134          1.0000   
         H         H         1.0       0.7232019175018615  0.17235440852071632           0.16478310971091573          1.0000   
         H         H         1.0       0.739607297820623   0.18269656029581258           0.33509742841513473          1.0000   
         H         H         1.0       0.7600922716209465  0.15937056494016077           0.32882859914289797          1.0000   
         H         H         1.0       0.7331093479274278  0.21946302122465106           0.33432573839306845          1.0000   
         H         H         1.0       0.7514459403843431  0.23903121256980284           0.30736211669191954          1.0000   
         H         H         1.0       0.7429680274473023  0.2284430560155121  0.12525079593732708          1.0000   
         H         H         1.0       0.726996954893449   0.20329643960099616           0.154233770291004  1.0000   
         H         H         1.0       0.6965045750141582  0.21967969928768158           0.19698328181578206          1.0000   
         H         H         1.0       0.6723928766346672  0.21588582167728415           0.13774793382628475          1.0000   
         H         H         1.0       0.6708582166084694  0.16234766479665066           0.1816126128129949 1.0000   
         H         H         1.0       0.6912771734713977  0.16487456551648355           0.2411223991300964 1.0000   
         C         C         1.0       0.6494812071599749  0.19261608791068885           0.7064638494533119 1.0000   
         C         C         1.0       0.6625289217681125  0.20065087163828635           0.7364842563679083 1.0000   
         C         C         1.0       0.6677243843520713  0.19450856339580203           0.7883418304031093 1.0000   
         C         C         1.0       0.6617106022558029  0.1790344230036194  0.8097706770497609 1.0000   
         C         C         1.0       0.6472795299005409  0.17198001240212674           0.7849192916209283 1.0000   
         C         C         1.0       0.6409002212794993  0.17896544768603342           0.734141268880563  1.0000   
         H         H         1.0       0.6685987315350241  0.21223094295011696           0.7229160503978355 1.0000   
         H         H         1.0       0.6784173477971833  0.20035088504677886           0.8099035332469422 1.0000   
         H         H         1.0       0.6412513612644363  0.16044724347490477           0.8012316442658396 1.0000   
         H         H         1.0       0.6286970488450713  0.17525858949801604           0.7160127227353345 1.0000   
         C         C         1.0       0.6765966157252898  0.14024187647022182           0.9071585758594893 1.0000   
         C         C         1.0       0.6723376686641165  0.14966106079030983           0.8588991580002315 1.0000   
         C         C         1.0       0.6726131996253573  0.14104814293912793           0.8062332990609372 1.0000   
         C         C         1.0       0.6748185900532275  0.12378631872405031           0.801778473554239  1.0000   
         C         C         1.0       0.676617600098953   0.1140934880883069  0.850582541396319  1.0000   
         C         C         1.0       0.6765739774356817  0.12249109073835869           0.902651791984651  1.0000   
         C         C         1.0       0.67155838933935    0.17020549432689827           0.8626689579401873 1.0000   
         C         C         1.0       0.6627469338083506  0.17867923177859013           0.9173669258405553 1.0000   
         C         C         1.0       0.6698923962793468  0.19348395987586497           0.9384965129975764 1.0000   
         C         C         1.0       0.6645810142196318  0.19861310816209782           0.9907476844386532 1.0000   
         C         C         1.0       0.651374648999715   0.19055023358935538           0.020106472720874846         1.0000   
         C         C         1.0       0.643524824788546   0.17756928506859737           0.9940480225143202 1.0000   
         C         C         1.0       0.6486438614942394  0.17155065426504815           0.9412873106134784 1.0000   
         C         C         1.0       0.7011190963734065  0.1714045519272214  0.8084280865548313 1.0000   
         C         C         1.0       0.7178604788033934  0.1759136428818784  0.8045997563191994 1.0000   
         C         C         1.0       0.7262966753073438  0.1806739858105327  0.855705011374215  1.0000   
         C         C         1.0       0.7195455379548091  0.1763774394356497  0.9091687257715794 1.0000   
         C         C         1.0       0.7028287332174888  0.17148470108110794           0.911078310038132  1.0000   
         C         C         1.0       0.6926129486229311  0.17200312654424663           0.8599333666504155 1.0000   
         C         C         1.0       0.7445328498424353  0.19085814129180964           0.8526392598356869 1.0000   
         C         C         1.0       0.7705112965951958  0.14271500599332992           0.8143136318491883 1.0000   
         C         C         1.0       0.7655085390483528  0.15386805226363306           0.7728124375158351 1.0000   
         C         C         1.0       0.7594862893801939  0.16919971777253787           0.786824568397711  1.0000   
         C         C         1.0       0.7574202057174697  0.1750798906854651  0.8428474059654117 1.0000   
         C         C         1.0       0.7626522977923905  0.16384369293078957           0.8855448011220501 1.0000   
         C         C         1.0       0.7681728457152548  0.14757035775415073           0.8723325333537999 1.0000   
         C         C         1.0       0.7490500743697207  0.20209162778047168           0.9079496684343875 1.0000   
         C         C         1.0       0.7359104945210254  0.21178649245526793           0.9326049896070886 1.0000   
         C         C         1.0       0.7396605931316141  0.22424698349388603           0.9734089023922606 1.0000   
         C         C         1.0       0.7567846388785324  0.22718121673712258           0.9852430774790353 1.0000   
         C         C         1.0       0.7697703469333707  0.21643933299657128           0.9638003333811576 1.0000   
         C         C         1.0       0.7660660927438842  0.2033166146001751  0.926491457658268  1.0000   
         C         C         1.0       0.7617263542601067  0.20870812173448322           0.7761229166714144 1.0000   
         C         C         1.0       0.7623737348525332  0.22088977028883877           0.733861548546636  1.0000   
         C         C         1.0       0.7485165764854379  0.2304566618973891  0.721247992809756  1.0000   
         C         C         1.0       0.7333142461679076  0.2279471913364479  0.7542899450302871 1.0000   
         C         C         1.0       0.7321492762486596  0.21440315861898748           0.7892647745618521 1.0000   
         C         C         1.0       0.7460142298879245  0.20449583593870396           0.8031731269253194 1.0000   
         H         H         1.0       0.6765243481634216  0.14419122147962274           0.9524335912455753 1.0000   
         H         H         1.0       0.6713499108628838  0.1495478037281429  0.7678550406084835 1.0000   
         H         H         1.0       0.6753411116717231  0.11798288288789995           0.7628107517706253 1.0000   
         H         H         1.0       0.6808563339255022  0.11529823965364372           0.9404106291252772 1.0000   
         H         H         1.0       0.6808474715952575  0.19976634077524888           0.9197125270454428 1.0000   
         H         H         1.0       0.6711723736348206  0.20895664903870564           0.01590278562053271          1.0000   
         H         H         1.0       0.6328650361547211  0.17187547466954275           0.017051465677179408         1.0000   
         H         H         1.0       0.6417606330503207  0.16057043280846323           0.9231850163811897 1.0000   
         H         H         1.0       0.6941695111634976  0.1670025861274029  0.7695638263366624 1.0000   
         H         H         1.0       0.7232967010017821  0.1758809797434416  0.7623112347624936 1.0000   
         H         H         1.0       0.7276299516729487  0.1780488490307719  0.9463656230535168 1.0000   
         H         H         1.0       0.6975449416579089  0.169767328670142   0.952334022331008  1.0000   
         H         H         1.0       0.7656302367207872  0.1499660744526224  0.7299236862160867 1.0000   
         H         H         1.0       0.7532598784536567  0.1751798994579564  0.7522059999729388 1.0000   
         H         H         1.0       0.7607875466681933  0.16813673847833455           0.9296907472306931 1.0000   
         H         H         1.0       0.7719805961802115  0.13803307757513741           0.9066731366328391 1.0000   
         H         H         1.0       0.7228412123308579  0.21088597335139747           0.9170565057948842 1.0000   
         H         H         1.0       0.728937690285909   0.2319949365929675  0.9841857930095809 1.0000   
         H         H         1.0       0.7829313249322973  0.21918084915388733           0.9782801935423665 1.0000   
         H         H         1.0       0.7766800148345132  0.1949848803331115  0.913539164740396  1.0000   
         H         H         1.0       0.7729681874782852  0.2032272205185953  0.7924317484742469 1.0000   
         H         H         1.0       0.7743410318512405  0.22350404518516775           0.7153364358471518 1.0000   
         H         H         1.0       0.7234737599801218  0.2372918258876113  0.7562753973982116 1.0000   
         H         H         1.0       0.7195557754234089  0.212152545283759   0.8090071425756548 1.0000   
         C         C         1.0       0.5111016955231945  0.2888377802542067  0.51623309991034   1.0000   
         C         C         1.0       0.5280638810165444  0.28849481027068546           0.5009428829852544 1.0000   
         C         C         1.0       0.5348809946276237  0.2738500963644208  0.4795514605737181 1.0000   
         C         C         1.0       0.5254367559955383  0.25860655779667796           0.47487074651795813          1.0000   
         C         C         1.0       0.5076678105604162  0.25939475597315975           0.4868707104063139 1.0000   
         C         C         1.0       0.5004661519709709  0.2739617700165656  0.5093145860246974 1.0000   
         H         H         1.0       0.5348655565888633  0.29984421007891565           0.5094303612733907 1.0000   
         H         H         1.0       0.5481639072032102  0.2752117005743326  0.46578363532008304          1.0000   
         H         H         1.0       0.4993888449572507  0.24782160207207368           0.4773056003217812 1.0000   
         H         H         1.0       0.48743751200950675           0.2741235855475969 0.5333363095923258 1.0000   
         C         C         1.0       0.5235797673347661  0.22385602623980216           0.5405105956322007 1.0000   
         C         C         1.0       0.5283073975878242  0.22388208485627709           0.4820052756778259 1.0000   
         C         C         1.0       0.5296823158783986  0.2083008264818102  0.45267627585647363          1.0000   
         C         C         1.0       0.5272881312264068  0.19348610616790388           0.4810424594122685 1.0000   
         C         C         1.0       0.5219502031180835  0.19317119580366346           0.5369434673437675 1.0000   
         C         C         1.0       0.5198764480374345  0.20826774730977604           0.5666331682308662 1.0000   
         C         C         1.0       0.5341488869419406  0.2416028878485176  0.45358581698688843          1.0000   
         C         C         1.0       0.554769541211508   0.2392687342182619  0.46730470286860465          1.0000   
         C         C         1.0       0.5653231385393949  0.22978386031302617           0.4310261241123715 1.0000   
         C         C         1.0       0.5818491112618505  0.22400007180076906           0.4492497653259721 1.0000   
         C         C         1.0       0.5882343699460302  0.22874142981565293           0.5017322049409939 1.0000   
         C         C         1.0       0.577461181824771   0.23861083216260193           0.535616851119837  1.0000   
         C         C         1.0       0.5615387240417441  0.2442906927839436  0.5187624637137511 1.0000   
         C         C         1.0       0.516121428149948   0.2369838094054984  0.36238767200864896          1.0000   
         C         C         1.0       0.5150239476605027  0.23531020083939438           0.30454277774401617          1.0000   
         C         C         1.0       0.5292024464240886  0.24061691821003303           0.27227285267335977          1.0000   
         C         C         1.0       0.541049819929418   0.2525468144036771  0.2958875392587176 1.0000   
         C         C         1.0       0.5418432546400554  0.25313322662572657           0.35405684746121546          1.0000   
         C         C         1.0       0.530327149456946   0.24394689796326346           0.3868515103633897 1.0000   
         C         C         1.0       0.5351822657691134  0.23015161119742134           0.2198454996177397 1.0000   
         C         C         1.0       0.5693231098703951  0.19260129502629036           0.3048664686973033 1.0000   
         C         C         1.0       0.5525471518233473  0.18831174263214395           0.29216619183725506          1.0000   
         C         C         1.0       0.5423267812514488  0.1998096860808681  0.26588688115932474          1.0000   
         C         C         1.0       0.5473925424862659  0.2160425478493648  0.2532384446684042 1.0000   
         C         C         1.0       0.5640670940985261  0.22064621748338487           0.26918634752412285          1.0000   
         C         C         1.0       0.5750684576428982  0.20928691650371534           0.29464409853852824          1.0000   
         C         C         1.0       0.5450507404602002  0.24104592906583114           0.17208771596337508          1.0000   
         C         C         1.0       0.5402367414228598  0.2589572754520229  0.16139338974489467          1.0000   
         C         C         1.0       0.5475461835692871  0.2680074420211498  0.11806582293154454          1.0000   
         C         C         1.0       0.560879079680191   0.2604941410262195  0.08328970841538273          1.0000   
         C         C         1.0       0.5654705385637342  0.24381040871415716           0.09584460676801898          1.0000   
         C         C         1.0       0.5579072300605831  0.23409712465406368           0.13712971370693594          1.0000   
         C         C         1.0       0.5228046489923053  0.206796967318847   0.14875183233034958          1.0000   
         C         C         1.0       0.5114293297337443  0.2006368680831084  0.10807572009753796          1.0000   
         C         C         1.0       0.4970496101273842  0.20999183329167473           0.09837475322909349          1.0000   
         C         C         1.0       0.49379917015906943           0.2247345089617964 0.12684007116197554          1.0000   
         C         C         1.0       0.5059115095277401  0.23087257217848367           0.16786742738603241          1.0000   
         C         C         1.0       0.5211250609393787  0.2221231785224553  0.1761947901427218 1.0000   
         H         H         1.0       0.5205172969066159  0.23493334560073223           0.5670520886403702 1.0000   
         H         H         1.0       0.5332208155534973  0.20813064228902814           0.40849831737859316          1.0000   
         H         H         1.0       0.5303563754553497  0.18208692138647917           0.4598105962884175 1.0000   
         H         H         1.0       0.5144616369633798  0.20860755174539805           0.6103761204888193 1.0000   
         H         H         1.0       0.5593150062686886  0.22500755122542512           0.3915438462828125 1.0000   
         H         H         1.0       0.5892337318306818  0.21438350412767213           0.42623085974424424          1.0000   
         H         H         1.0       0.5822563840321652  0.24268592632604183           0.5783059355250871 1.0000   
         H         H         1.0       0.5543470870142154  0.25226903766033043           0.5510682474490205 1.0000   
         H         H         1.0       0.5061383391542597  0.23063948551221222           0.3887286645547402 1.0000   
         H         H         1.0       0.5052378475413827  0.22685316850649853           0.2896213956960551 1.0000   
         H         H         1.0       0.552255023902781   0.25794137109762083           0.27709598568031785          1.0000   
         H         H         1.0       0.5543282419289378  0.25694551186372044           0.367161138201578  1.0000   
         H         H         1.0       0.5469020304566415  0.17586910440285097           0.2949075372669757 1.0000   
         H         H         1.0       0.5293774341502898  0.197341948187843   0.25870714135388073          1.0000   
         H         H         1.0       0.5682882617291296  0.23410306292251276           0.2650947751701803 1.0000   
         H         H         1.0       0.5887892311415437  0.21138563697577548           0.3005277686054104 1.0000   
         H         H         1.0       0.5306768910227513  0.264596017080734   0.18994736809920573          1.0000   
         H         H         1.0       0.545524818500518   0.2820341935453544  0.11168565634510441          1.0000   
         H         H         1.0       0.5770903934816642  0.23747082575652684           0.07730619832124463          1.0000   
         H         H         1.0       0.5630765888428907  0.22134456591377366           0.14445583683118504          1.0000   
         H         H         1.0       0.534825945678602   0.19920696410032684           0.1524172729223012 1.0000   
         H         H         1.0       0.5142659185937155  0.1881059500116729  0.0890919619516699 1.0000   
         H         H         1.0       0.4828032458964038  0.23181086379471116           0.11091214913280165          1.0000   
         H         H         1.0       0.5045722080107202  0.24234627558294375           0.19062599761660767          1.0000   
         C         C         1.0       0.5686481351037013  0.258590165107177   0.9382083272072594 1.0000   
         C         C         1.0       0.5767335747888952  0.26152579356341377           0.8870211275213651 1.0000   
         C         C         1.0       0.5799527216270505  0.24865643923619174           0.8496694691591877 1.0000   
         C         C         1.0       0.575711297541761   0.23188998901157473           0.8600879619951192 1.0000   
         C         C         1.0       0.5657368145305454  0.22873564489828963           0.9132688568017789 1.0000   
         C         C         1.0       0.5632840926793041  0.24183292929323455           0.949698142974599  1.0000   
         H         H         1.0       0.5788578373421158  0.27499744925293856           0.8739733779063146 1.0000   
         H         H         1.0       0.5865193435120114  0.25247161657122585           0.8117472894312534 1.0000   
         H         H         1.0       0.5594899942978855  0.21714903927538182           0.9230827223105968 1.0000   
         H         H         1.0       0.5549789781417058  0.2401599113344819  0.986743543224409  1.0000   
         C         C         1.0       0.5933054265607512  0.1980534584984503  0.8953968003072776 1.0000   
         C         C         1.0       0.5812260473100137  0.1987123391848911  0.8511683887895382 1.0000   
         C         C         1.0       0.5742110538186197  0.1830200984890914  0.8361596998274924 1.0000   
         C         C         1.0       0.57779021502906    0.16805258056972802           0.8656200389434354 1.0000   
         C         C         1.0       0.5890913138966954  0.16844127907790615           0.9111350496578149 1.0000   
         C         C         1.0       0.5978692783552444  0.18341172935669245           0.9234797772591032 1.0000   
         C         C         1.0       0.5771588177938514  0.21541636630445718           0.8184380034509183 1.0000   
         C         C         1.0       0.5934710625755539  0.2158455657362742  0.7759869872511014 1.0000   
         C         C         1.0       0.5921029552599236  0.20734806878502346           0.722677032409875  1.0000   
         C         C         1.0       0.6046593432664544  0.20920550712871896           0.6817504378171575 1.0000   
         C         C         1.0       0.6200046446916998  0.21723071289931123           0.6953004067039873 1.0000   
         C         C         1.0       0.6212460594704021  0.2252768342324954  0.7482133050803057 1.0000   
         C         C         1.0       0.6078472638294659  0.22592380375401572           0.7849328837507693 1.0000   
         C         C         1.0       0.5436779120631109  0.21034018346844202           0.8097848300717793 1.0000   
         C         C         1.0       0.5283428887319459  0.21830963450324997           0.7995843350582676 1.0000   
         C         C         1.0       0.5274953689114561  0.23217525531118363           0.7632278736337602 1.0000   
         C         C         1.0       0.5411518488397399  0.23464519562128106           0.7271696810774767 1.0000   
         C         C         1.0       0.5565418588455098  0.22759014828170152           0.7404131217501624 1.0000   
         C         C         1.0       0.5584282719817624  0.2162354615043831  0.7866610489990082 1.0000   
         C         C         1.0       0.5103410227864678  0.24449916464417681           0.7686962097041459 1.0000   
         C         C         1.0       0.47372176911964825           0.20228646885190912          0.7512178760447007 1.0000   
         C         C         1.0       0.47639118119849017           0.21040559405180218          0.8009912766117755 1.0000   
         C         C         1.0       0.48609560154535075           0.22578001343003143          0.8060748802446988 1.0000   
         C         C         1.0       0.4952667599127915  0.23107925810240068           0.7569305579028036 1.0000   
         C         C         1.0       0.49285227121059033           0.22198792557754907          0.7049564966534037 1.0000   
         C         C         1.0       0.4829518439043961  0.20798945568795374           0.7032239888477971 1.0000   
         C         C         1.0       0.5115884888722254  0.25975677983081313           0.7251774195986134 1.0000   
         C         C         1.0       0.5251666425325261  0.27170048826774446           0.7249078357907588 1.0000   
         C         C         1.0       0.5266168953623307  0.28405295073158304           0.6840885451740899 1.0000   
         C         C         1.0       0.5127798639808204  0.28870394227104984           0.6529164466242875 1.0000   
         C         C         1.0       0.49795756304344896           0.27902244816978966          0.6561760899327936 1.0000   
         C         C         1.0       0.4973831609384514  0.2647425329583475  0.6891479492960597 1.0000   
         C         C         1.0       0.4955567766910295  0.2662886200133321  0.8379066827588064 1.0000   
         C         C         1.0       0.49379015097133183           0.274642218838843  0.8907796862693685 1.0000   
         C         C         1.0       0.5052351057525855  0.270376554343494   0.9364104230733811 1.0000   
         C         C         1.0       0.5193017636491358  0.2600096226860992  0.9275506072208531 1.0000   
         C         C         1.0       0.5207921509663526  0.25242099646014715           0.8712730260655123 1.0000   
         C         C         1.0       0.5092143534720343  0.2547761631345522  0.8275754387962735 1.0000   
         H         H         1.0       0.5990988914155305  0.21043058175969226           0.9096212920311924 1.0000   
         H         H         1.0       0.5640821095320266  0.18208589662586822           0.8016421712337308 1.0000   
         H         H         1.0       0.5724020315919865  0.15607429765139286           0.8557263438711017 1.0000   
         H         H         1.0       0.6058345188868788  0.18406117441374756           0.960585112191832  1.0000   
         H         H         1.0       0.5808476884257224  0.19997845817092003           0.7182366800206752 1.0000   
         H         H         1.0       0.6044801610226068  0.20053027209974608           0.6449528335576016 1.0000   
         H         H         1.0       0.6328216490978823  0.2320927655464334  0.7611801794384587 1.0000   
         H         H         1.0       0.6090384696494463  0.23192297215149474           0.8279157749382162 1.0000   
         H         H         1.0       0.5437690678105443  0.20224292679364625           0.8467302025935137 1.0000   
         H         H         1.0       0.5184651943920593  0.2137446198258659  0.8231226128484151 1.0000   
         H         H         1.0       0.5396419669531828  0.24337838247348287           0.6923241869683041 1.0000   
         H         H         1.0       0.5674847279189591  0.23087313585570604           0.715685068759731  1.0000   
         H         H         1.0       0.4703031232953052  0.2052332914069991  0.8407268190071506 1.0000   
         H         H         1.0       0.48749159472669945           0.2313480288637312 0.8469855556894442 1.0000   
         H         H         1.0       0.5018722634666957  0.2245430783334525  0.6712779844247075 1.0000   
         H         H         1.0       0.48494987830577724           0.1997701862918671 0.6646006563940223 1.0000   
         H         H         1.0       0.5361218718957192  0.26879347867832987           0.7494832062359147 1.0000   
         H         H         1.0       0.5392990869155548  0.28995111510946253           0.6784008508216133 1.0000   
         H         H         1.0       0.48669710666916366           0.2831445725976195 0.630743003452187  1.0000   
         H         H         1.0       0.48566297037781275           0.25694761687463896          0.6880725989819573 1.0000   
         H         H         1.0       0.487399746287277   0.2699625115327805  0.8008726353005258 1.0000   
         H         H         1.0       0.48257646909724894           0.28304059314761515          0.9015406949782487 1.0000   
         H         H         1.0       0.5261197145546349  0.25624513954593287           0.9649378507537889 1.0000   
         H         H         1.0       0.5320901062327827  0.24437873930798293           0.8685455761605143 1.0000   
         C         C         1.0       0.6457890354615392  0.028233557155755262         0.08132931554971634          1.0000   
         C         C         1.0       0.6584429675754526  0.017138923481229806         0.09723888702808647          1.0000   
         C         C         1.0       0.6752123398055909  0.021796806722213624         0.08899000309189509          1.0000   
         C         C         1.0       0.6803709123906343  0.0365733138403177  0.061435009305003785         1.0000   
         C         C         1.0       0.6667187969032597  0.047888631036558715         0.05094459536475315          1.0000   
         C         C         1.0       0.6498641204718808  0.04354834142813857           0.05738472131768279          1.0000   
         H         H         1.0       0.6554626598133393  0.005344514340010376         0.12020615083748361          1.0000   
         H         H         1.0       0.6861412844889563  0.013946489098566106         0.10164437285902062          1.0000   
         H         H         1.0       0.6697346470637758  0.05956522886772553           0.03156368058853709          1.0000   
         H         H         1.0       0.639523808247427   0.05319672429967115           0.048925774275146106         1.0000   
         C         C         1.0       0.6918930463911296  0.0485018850242831  0.9419547015405463 1.0000   
         C         C         1.0       0.7013552806718699  0.05287038028351598           0.9912377089525565 1.0000   
         C         C         1.0       0.7113629989371073  0.06821163010738251           0.9903762827042175 1.0000   
         C         C         1.0       0.7104678557740123  0.0792451310183877  0.943959355909672  1.0000   
         C         C         1.0       0.6993529549672958  0.07531684410002604           0.8996665738291849 1.0000   
         C         C         1.0       0.6906945166484919  0.05987588918466691           0.8972329592705809 1.0000   
         C         C         1.0       0.7000076247166859  0.040559323020522564         0.04524635031473889          1.0000   
         C         C         1.0       0.7112750388208668  0.024876984210620234         0.021980151298532254         1.0000   
         C         C         1.0       0.728984190424227   0.0269392516604694  0.018783723785653624         1.0000   
         C         C         1.0       0.738415291834375   0.01438685774561832           0.9939298718669226 1.0000   
         C         C         1.0       0.7308331309771327  0.9996249845061219  0.978975665153972  1.0000   
         C         C         1.0       0.7132983353669093  0.9978065271079973  0.9831549300549269 1.0000   
         C         C         1.0       0.7035653008732384  0.010770545784107854         0.9995165474569774 1.0000   
         C         C         1.0       0.7047078163235921  0.06507130188221688           0.12341647497196649          1.0000   
         C         C         1.0       0.7103812016081261  0.07108162245980654           0.1749336276584105 1.0000   
         C         C         1.0       0.7169547906311902  0.0598132987260831  0.21666986168100072          1.0000   
         C         C         1.0       0.7182068093654596  0.04271755954149237           0.2016852522023764 1.0000   
         C         C         1.0       0.7125979395584325  0.03665467311068582           0.14948824394444857          1.0000   
         C         C         1.0       0.7077122864522701  0.04835442105999421           0.10660410336616466          1.0000   
         C         C         1.0       0.7224852706905447  0.06541723659880216           0.27789499219583097          1.0000   
         C         C         1.0       0.7566144237010881  0.11059719315742877           0.28160383106188647          1.0000   
         C         C         1.0       0.7439104570766865  0.10849784680077557           0.32219976668651146          1.0000   
         C         C         1.0       0.7328783762713633  0.0945660617738886  0.3209349508558037 1.0000   
         C         C         1.0       0.7339500218519508  0.08236442493015361           0.2783412153898898 1.0000   
         C         C         1.0       0.7460218517000574  0.08563047975553362           0.23518210079850155          1.0000   
         C         C         1.0       0.7577236063778731  0.09924749958927293           0.23814553088344126          1.0000   
         C         C         1.0       0.7342976113767649  0.0539584065800196  0.32026236515103557          1.0000   
         C         C         1.0       0.7464951832276477  0.043401654129956   0.2995378127542396 1.0000   
         C         C         1.0       0.7592892737859361  0.03708605382322294           0.3296449292769014 1.0000   
         C         C         1.0       0.7582361541776387  0.039052255709320915         0.3915724435402949 1.0000   
         C         C         1.0       0.7440499584411906  0.04709939333559521           0.4161418435725852 1.0000   
         C         C         1.0       0.7323508967591676  0.05468041676103241           0.3790232381662716 1.0000   
         C         C         1.0       0.6951164880648809  0.05454584305760224           0.33138011477593043          1.0000   
         C         C         1.0       0.6785073565607113  0.05586452304870004           0.34868309961390714          1.0000   
         C         C         1.0       0.6694166520603791  0.07076960048013703           0.34433617193959387          1.0000   
         C         C         1.0       0.6784286501024641  0.08484912704060732           0.31918995530002026          1.0000   
         C         C         1.0       0.6940247678519389  0.0827272501779186  0.2945722927601193 1.0000   
         C         C         1.0       0.7034807106109313  0.06807020568125877           0.30515959582521607          1.0000   
         H         H         1.0       0.6835099149035473  0.03694933519324106           0.9424859572647822 1.0000   
         H         H         1.0       0.7188887908333862  0.07317497509526705           0.02739356368792123          1.0000   
         H         H         1.0       0.7174949020805931  0.09153668435535978           0.9464879061600008 1.0000   
         H         H         1.0       0.6840510166413338  0.055822534067637486         0.8591886559987105 1.0000   
         H         H         1.0       0.7348899052392371  0.03871475781233835           0.034207839426713786         1.0000   
         H         H         1.0       0.753193528019217   0.01623285805076824           0.988529644576762  1.0000   
         H         H         1.0       0.7069458854824326  0.9865834380893277  0.9701723142285521 1.0000   
         H         H         1.0       0.6904117180957304  0.0069856828927492565        0.0004899179507786844        1.0000   
         H         H         1.0       0.6992810003887541  0.07493329462713394           0.09590806314181809          1.0000   
         H         H         1.0       0.7126948825331825  0.08443113701402805           0.18017616643459333          1.0000   
         H         H         1.0       0.7208942975294521  0.03417452754492256           0.2365669977328434 1.0000   
         H         H         1.0       0.7119981037568011  0.022930694674798913         0.1455840508474221 1.0000   
         H         H         1.0       0.7426823655937765  0.1174882385578293  0.35901953969154926          1.0000   
         H         H         1.0       0.7246138373935065  0.0942422790848183  0.360329684501286  1.0000   
         H         H         1.0       0.7481885965197413  0.07552829544581185           0.20674584040072086          1.0000   
         H         H         1.0       0.7680272419936279  0.10134997612427443           0.20791186587628446          1.0000   
         H         H         1.0       0.748631866467149   0.04298662539355935           0.2535285791255733 1.0000   
         H         H         1.0       0.7698227821005171  0.030444079070258923         0.3123389519175359 1.0000   
         H         H         1.0       0.7422949458172869  0.04757932273587806           0.46184610830222517          1.0000   
         H         H         1.0       0.7234479011578215  0.06270208628717255           0.3997715062409364 1.0000   
         H         H         1.0       0.7015935619843197  0.04315473191657526           0.3411170592329273 1.0000   
         H         H         1.0       0.6717172528604537  0.04504153197333727           0.36339098463567954          1.0000   
         H         H         1.0       0.6720303809364732  0.0978212354348238  0.31764831956798245          1.0000   
         H         H         1.0       0.6982700004388522  0.09463397106593763           0.2771198180643151 1.0000   
         C         C         1.0       0.6334518460558048  0.09257359167194168           0.7198700157984189 1.0000   
         C         C         1.0       0.639351292716449   0.07615212431987706           0.7191515304273256 1.0000   
         C         C         1.0       0.6533694188426915  0.07217517651160632           0.6835198485173248 1.0000   
         C         C         1.0       0.6638081242465529  0.08473831617570804           0.6606707471017835 1.0000   
         C         C         1.0       0.658215428903896   0.10177942472592139           0.6666634568715881 1.0000   
         C         C         1.0       0.6425901411613144  0.10483059207310585           0.690044321355581  1.0000   
         H         H         1.0       0.6308285340365261  0.06576172732879737           0.7332361102158222 1.0000   
         H         H         1.0       0.6573184365400129  0.05862658426795497           0.6822265294056744 1.0000   
         H         H         1.0       0.6654169248344073  0.11248533231051216           0.6454740714782379 1.0000   
         H         H         1.0       0.6388372641081448  0.11834182082632361           0.6863427938103394 1.0000   
         C         C         1.0       0.7049549138864154  0.10136069295724814           0.5759831552786843 1.0000   
         C         C         1.0       0.6957126627171011  0.09622023908449129           0.6263807875541925 1.0000   
         C         C         1.0       0.6996708996271701  0.10463605704159629           0.6786254084742444 1.0000   
         C         C         1.0       0.7112365430870826  0.1170021356680977  0.6810645850055053 1.0000   
         C         C         1.0       0.7201569453911325  0.12168574694765821           0.6338561926745472 1.0000   
         C         C         1.0       0.7171200480372015  0.11387649155065005           0.5808167413863203 1.0000   
         C         C         1.0       0.681776264268814   0.08051188851986324           0.6265793568625696 1.0000   
         C         C         1.0       0.6733240805087156  0.07549305946091245           0.5666227591188573 1.0000   
         C         C         1.0       0.6700049593812685  0.05861674947380968           0.5496493918666987 1.0000   
         C         C         1.0       0.66046797903898    0.05560861911525583           0.5016417875127794 1.0000   
         C         C         1.0       0.6547674202514796  0.06872247314591418           0.4674090662591309 1.0000   
         C         C         1.0       0.6576085289212721  0.08528491249152692           0.48380739559368396          1.0000   
         C         C         1.0       0.6667666419446138  0.08876936915416467           0.5327153777660455 1.0000   
         C         C         1.0       0.6925931060756365  0.06165831586293535           0.709248192984239  1.0000   
         C         C         1.0       0.7067002320642268  0.05298651089229156           0.7303678396809454 1.0000   
         C         C         1.0       0.7214901067661338  0.04829196349812759           0.699996569305707  1.0000   
         C         C         1.0       0.7205236829586069  0.05138438985139082           0.6410344784293251 1.0000   
         C         C         1.0       0.7064448510053816  0.06020049192111521           0.6156770797943586 1.0000   
         C         C         1.0       0.6933683602216691  0.06666806880596265           0.6513603696474106 1.0000   
         C         C         1.0       0.738215823852578   0.04314923848812047           0.7317325871441663 1.0000   
         C         C         1.0       0.7534330959450022  0.09516827369477321           0.7787040194074567 1.0000   
         C         C         1.0       0.7468928539356549  0.08446241018288148           0.8185117053752816 1.0000   
         C         C         1.0       0.7422324731667639  0.06802516736085296           0.8074592200967685 1.0000   
         C         C         1.0       0.7441164732143235  0.06209066755082926           0.751442406485669  1.0000   
         C         C         1.0       0.7522224852718824  0.07241054042465667           0.710571746268172  1.0000   
         C         C         1.0       0.7564962454341572  0.08880192660811703           0.7253047616400714 1.0000   
         C         C         1.0       0.7524049066742853  0.03286717794496896           0.6902978980698161 1.0000   
         C         C         1.0       0.7473656776744472  0.019711142402277115         0.6539219400736123 1.0000   
         C         C         1.0       0.7591303178528752  0.007079770270558283         0.6382893990833947 1.0000   
         C         C         1.0       0.7761096681309447  0.00863421046513868           0.6522892496785735 1.0000   
         C         C         1.0       0.7812291548454993  0.02285750362033334           0.682251513927189  1.0000   
         C         C         1.0       0.7694631432689029  0.034390956238942616         0.7030464435443396 1.0000   
         C         C         1.0       0.7494133619687007  0.026689505721946727         0.8199460641700792 1.0000   
         C         C         1.0       0.7509903756641356  0.012123372401069643         0.8495789021175681 1.0000   
         C         C         1.0       0.7381855219122813  0.999256143624691   0.8521857028068386 1.0000   
         C         C         1.0       0.7243035372548419  0.001374349029888311         0.817835600126185  1.0000   
         C         C         1.0       0.724113683910425   0.01556121308440428           0.7807190933891792 1.0000   
         C         C         1.0       0.7363871042379874  0.028552371080555305         0.7804617699061305 1.0000   
         H         H         1.0       0.7034345817408347  0.09443713386110653           0.5349142419729223 1.0000   
         H         H         1.0       0.6917429457707727  0.10018051709516773           0.7138305741823658 1.0000   
         H         H         1.0       0.7143652872776872  0.12282658190062953           0.720449832820612  1.0000   
         H         H         1.0       0.7234790907258141  0.11663607734028214           0.5399305712849789 1.0000   
         H         H         1.0       0.6759671716478405  0.04828527620407064           0.5724493081211328 1.0000   
         H         H         1.0       0.6577716827082964  0.04309060493169614           0.4872805567913608 1.0000   
         H         H         1.0       0.6530635209428862  0.09502820643185883           0.4562663354003182 1.0000   
         H         H         1.0       0.6683389302577782  0.10222808027324026           0.5429749028015176 1.0000   
         H         H         1.0       0.6835558688313015  0.06638378872275186           0.7385412615489271 1.0000   
         H         H         1.0       0.7089193085562785  0.052421930425948116         0.7756977590172315 1.0000   
         H         H         1.0       0.7320086942042193  0.04864202436189369           0.6134059606495303 1.0000   
         H         H         1.0       0.7085311000005009  0.06438244719787711           0.5710907725273263 1.0000   
         H         H         1.0       0.7432164569282483  0.08932625871846911           0.8600539565144523 1.0000   
         H         H         1.0       0.7369156221832377  0.06022719744163241           0.8436453351147611 1.0000   
         H         H         1.0       0.7548515131009554  0.06675592325262669           0.667103131205047  1.0000   
         H         H         1.0       0.7609857442553724  0.09778455546586007           0.6928991879328533 1.0000   
         H         H         1.0       0.7339101462065083  0.015821820439736012         0.6482803957550021 1.0000   
         H         H         1.0       0.7553310039785143  0.9949775873800752  0.6192728990830292 1.0000   
         H         H         1.0       0.7945209196775039  0.023205203886549564         0.6935452926838517 1.0000   
         H         H         1.0       0.7714933730378445  0.04389577141157508           0.7332183978183074 1.0000   
         H         H         1.0       0.7588255691421483  0.036417947745375656         0.8251989951350712 1.0000   
         H         H         1.0       0.763100035387621   0.009099405301153496         0.8715077385690603 1.0000   
         H         H         1.0       0.7126406385609851  0.9931950687289233  0.8222964333472397 1.0000   
         H         H         1.0       0.7127956123618597  0.017162149300522067         0.7506097195005749 1.0000   
         C         C         1.0       0.508743974761937   0.08337387785465245           0.07389058277863003          1.0000   
         C         C         1.0       0.5181272258517836  0.0689333258211462  0.08523411210050158          1.0000   
         C         C         1.0       0.5356957878893878  0.06943835041322588           0.08264557819777084          1.0000   
         C         C         1.0       0.5444147804134116  0.08435243697115591           0.0702563115873045 1.0000   
         C         C         1.0       0.5343132852578353  0.09789942590445166           0.05321891312092552          1.0000   
         C         C         1.0       0.5167262162127074  0.09901695914483555           0.061491971104863374         1.0000   
         H         H         1.0       0.5120597083517481  0.057217404889455814         0.09240540778131079          1.0000   
         H         H         1.0       0.5428844277027545  0.05840249510968687           0.09730047633617998          1.0000   
         H         H         1.0       0.5395881942131376  0.11078776856145289           0.0471419328187701 1.0000   
         H         H         1.0       0.5094339904129108  0.1107114634412476  0.0569459646705619 1.0000   
         C         C         1.0       0.5675869046596975  0.10070582339421508           0.9811115582894272 1.0000   
         C         C         1.0       0.5735794666594405  0.09902198696424414           0.03797083729905126          1.0000   
         C         C         1.0       0.5867536524923745  0.10985334505936684           0.057100480635975386         1.0000   
         C         C         1.0       0.5944706314612779  0.12100461145414942           0.019227087174661373         1.0000   
         C         C         1.0       0.5880954519282479  0.1232606744683109  0.9637376367273779 1.0000   
         C         C         1.0       0.5751845530680811  0.11252834261528233           0.9442412269448491 1.0000   
         C         C         1.0       0.564211248230366   0.08598708201329575           0.08306950999738927          1.0000   
         C         C         1.0       0.5765322284791802  0.06975001669439118           0.07703353676511604          1.0000   
         C         C         1.0       0.5934192231945347  0.06985927696941152           0.09935274808414918          1.0000   
         C         C         1.0       0.6041091722543575  0.05633486367979734           0.0931581612100305 1.0000   
         C         C         1.0       0.6002799988574192  0.04250496491258171           0.058050047678247056         1.0000   
         C         C         1.0       0.5849009109941028  0.04379127920319048           0.02808356362130948          1.0000   
         C         C         1.0       0.5733996395529317  0.0575265101571083  0.03676477938833567          1.0000   
         C         C         1.0       0.5573080955123991  0.10906937721491294           0.15956391757437027          1.0000   
         C         C         1.0       0.5527179464403497  0.1136890565696238  0.21475788263215612          1.0000   
         C         C         1.0       0.5509701629774606  0.10134341477875797           0.2561710942523802 1.0000   
         C         C         1.0       0.5588451935125325  0.08603397553351977           0.2468455284599135 1.0000   
         C         C         1.0       0.5623356283191876  0.08111693897044447           0.19248772231661496          1.0000   
         C         C         1.0       0.5618824712831527  0.09218144015081386           0.14655131506148625          1.0000   
         C         C         1.0       0.5393040826590225  0.1053029320432799  0.3133794002462361 1.0000   
         C         C         1.0       0.5642071041243731  0.15321310559991952           0.3758396451593898 1.0000   
         C         C         1.0       0.5470248205231026  0.15156695186147529           0.37897344132568345          1.0000   
         C         C         1.0       0.5391540619134751  0.13567341207091443           0.3691440858790042 1.0000   
         C         C         1.0       0.5482940080116595  0.12177150083069876           0.34357215028009763          1.0000   
         C         C         1.0       0.5655853799442968  0.12365933848151456           0.34226998861844865          1.0000   
         C         C         1.0       0.5731079327487046  0.13885250925130266           0.357256394541327  1.0000   
         C         C         1.0       0.5401162271091184  0.08930717313361347           0.35583719090902793          1.0000   
         C         C         1.0       0.529134035629925   0.07454349331801158           0.34646687178402313          1.0000   
         C         C         1.0       0.5319812030033777  0.05953267103956272           0.373990447415928  1.0000   
         C         C         1.0       0.5448111743817546  0.057854549811162004         0.4147229892993372 1.0000   
         C         C         1.0       0.5552042776002327  0.07170298208157444           0.42863362282565687          1.0000   
         C         C         1.0       0.5535325831303031  0.08708789709224996           0.39793186385972157          1.0000   
         C         C         1.0       0.5062599863439808  0.1113292964181023  0.3367873303937839 1.0000   
         C         C         1.0       0.4888429656893382  0.11373550317890757           0.31952954806223655          1.0000   
         C         C         1.0       0.4841239108206952  0.11309139932529533           0.26456075754223307          1.0000   
         C         C         1.0       0.49592338919374906           0.10722165524319549          0.22459722557578757          1.0000   
         C         C         1.0       0.5134194884176182  0.105646772920031   0.23917448994446538          1.0000   
         C         C         1.0       0.5195965588164234  0.10859605277417739           0.2950511905038654 1.0000   
         H         H         1.0       0.557558409620289   0.09311983996498796           0.9604111883329183 1.0000   
         H         H         1.0       0.5901439333484783  0.10946893232802446           0.10031806202957315          1.0000   
         H         H         1.0       0.6051373452905632  0.12773708375608805           0.0392320380084108 1.0000   
         H         H         1.0       0.5697997834390881  0.11404310218518088           0.901475531631015  1.0000   
         H         H         1.0       0.5965850882575314  0.0808608200106451  0.1237850466692199 1.0000   
         H         H         1.0       0.6163559603713717  0.05659119353389963           0.11508272645253674          1.0000   
         H         H         1.0       0.581971417800531   0.033882545148700594         0.9951256990683384 1.0000   
         H         H         1.0       0.5620401516322103  0.05610272524953119           0.008256390208404072         1.0000   
         H         H         1.0       0.5581211802300047  0.11886458224784624           0.12755784239949505          1.0000   
         H         H         1.0       0.5481248145678002  0.12651008773051786           0.22217955704787312          1.0000   
         H         H         1.0       0.559541173951036   0.07646215486115038           0.28065451196585944          1.0000   
         H         H         1.0       0.566879849354869   0.0687590315827511  0.18993960269869786          1.0000   
         H         H         1.0       0.5393776409013901  0.16150765659024416           0.3956433195193637 1.0000   
         H         H         1.0       0.5256558119093696  0.13519315085757833           0.3791970571645742 1.0000   
         H         H         1.0       0.5728999134099928  0.11281845379557742           0.3286024822295953 1.0000   
         H         H         1.0       0.58683219662013    0.13920201081349348           0.355201483541503  1.0000   
         H         H         1.0       0.5211804405202534  0.07476738291549023           0.3102334995847816 1.0000   
         H         H         1.0       0.5234914475840582  0.049213278868114774         0.36379260727001306          1.0000   
         H         H         1.0       0.5656894299464373  0.06953009448638592           0.4614522884969644 1.0000   
         H         H         1.0       0.5633385632059824  0.09678810670648064           0.40637063540206064          1.0000   
         H         H         1.0       0.5092737275191478  0.11153174207030214           0.38454751684140365          1.0000   
         H         H         1.0       0.4794023711118338  0.11637878149342518           0.35257757023929803          1.0000   
         H         H         1.0       0.492173525424489   0.10635403923484787           0.1811942247015664 1.0000   
         H         H         1.0       0.5217635917899606  0.10146289337911663           0.20361756755980245          1.0000   
         C         C         1.0       0.5303341746517581  0.05433150053437852           0.5464107460020245 1.0000   
         C         C         1.0       0.5381523461316807  0.05156019563368153           0.5976179626060861 1.0000   
         C         C         1.0       0.5408974999011131  0.06533817464351777           0.6357410109589829 1.0000   
         C         C         1.0       0.5349226848144192  0.08165274520449395           0.6223085418276811 1.0000   
         C         C         1.0       0.5259359861520648  0.0836518128444359  0.5714620345823342 1.0000   
         C         C         1.0       0.5235033085172037  0.07009346707274511           0.5346345455557258 1.0000   
         H         H         1.0       0.54362612916613    0.038227135170993076         0.6073095331536187 1.0000   
         H         H         1.0       0.5497645069803353  0.0630147027602932  0.6689863071884653 1.0000   
         H         H         1.0       0.5195394977046567  0.09503948641801685           0.5585558115589838 1.0000   
         H         H         1.0       0.5156906965288948  0.07137705382155812           0.4981313511090583 1.0000   
         C         C         1.0       0.5423994897547216  0.12009963304665061           0.5825950771489128 1.0000   
         C         C         1.0       0.5365224847991442  0.11698583193486933           0.6378691893864918 1.0000   
         C         C         1.0       0.5328433956050674  0.1310845205863984  0.6732026980759979 1.0000   
         C         C         1.0       0.5329062385327472  0.14750935555992584           0.6488944524006752 1.0000   
         C         C         1.0       0.5386213608608603  0.15009635943957544           0.5928666423186821 1.0000   
         C         C         1.0       0.5430525760169284  0.13608633146190452           0.5601780533442887 1.0000   
         C         C         1.0       0.5372620034258094  0.09793146969776378           0.6636666588310421 1.0000   
         C         C         1.0       0.5557731034819303  0.09832372490853336           0.6909350358083967 1.0000   
         C         C         1.0       0.5587112051863355  0.10534156859489863           0.7449325163725378 1.0000   
         C         C         1.0       0.5746078005302203  0.1095838831419571  0.7633134029013854 1.0000   
         C         C         1.0       0.5884273482920228  0.10639760557755107           0.7283065856852657 1.0000   
         C         C         1.0       0.5865130944175118  0.09936510483558258           0.6751332208258173 1.0000   
         C         C         1.0       0.5703144784828854  0.09544608701798518           0.6566073723477954 1.0000   
         C         C         1.0       0.5039449806139621  0.09986516275725621           0.6786341671489615 1.0000   
         C         C         1.0       0.4893119018842319  0.09957199781079384           0.711089948703903  1.0000   
         C         C         1.0       0.4896519134520524  0.09445718651729318           0.769397224402831  1.0000   
         C         C         1.0       0.5050056144437642  0.08818372668150509           0.7905522949296468 1.0000   
         C         C         1.0       0.5197492380989522  0.08926782536024391           0.7547551116279461 1.0000   
         C         C         1.0       0.5197028939213374  0.09629446216891457           0.701305500935029  1.0000   
         C         C         1.0       0.47232206209405336           0.09576114417711201          0.8074207589552518 1.0000   
         C         C         1.0       0.4710959981269457  0.1511770913111663  0.7771176889583193 1.0000   
         C         C         1.0       0.4584433479106691  0.14139807275105776           0.750943382602885  1.0000   
         C         C         1.0       0.4579488076646229  0.12366115205785877           0.762362703293657  1.0000   
         C         C         1.0       0.4691595642418881  0.11585653815009933           0.8005673447679605 1.0000   
         C         C         1.0       0.481300119814575   0.12688250175722593           0.8256702940351606 1.0000   
         C         C         1.0       0.4807357036174706  0.14446403913428307           0.8185225419970672 1.0000   
         C         C         1.0       0.47337646013104845           0.08895993030023686          0.8715020546133772 1.0000   
         C         C         1.0       0.4815772265893893  0.073295156347716   0.8865638800161558 1.0000   
         C         C         1.0       0.48291199987028166           0.06833567557426212          0.9426895234896466 1.0000   
         C         C         1.0       0.47553387187392016           0.07750332645687097          0.986093443819407  1.0000   
         C         C         1.0       0.46693218679086074           0.09272776825844131          0.9731309222142341 1.0000   
         C         C         1.0       0.46548643317009486           0.09823677305110046          0.9170144860927052 1.0000   
         C         C         1.0       0.43957721804461847           0.0866789600662825 0.7854515651988693 1.0000   
         C         C         1.0       0.4276784758421914  0.07554124371297855           0.7640697983670601 1.0000   
         C         C         1.0       0.4323889181308452  0.061051823454851384         0.7347118507248382 1.0000   
         C         C         1.0       0.44963795212563906           0.05659618337604044          0.7287997387412734 1.0000   
         C         C         1.0       0.46236936967658215           0.06808704213388106          0.7480575346664072 1.0000   
         C         C         1.0       0.45762109754824126           0.0829012538222933 0.7815084652097509 1.0000   
         H         H         1.0       0.5441009780563167  0.11026589824024469           0.5505676735244334 1.0000   
         H         H         1.0       0.5299998727058186  0.12895906668784862           0.7187534229470735 1.0000   
         H         H         1.0       0.5279228209538966  0.1585107281011832  0.6747074101528999 1.0000   
         H         H         1.0       0.54763201858208    0.13916453652110383           0.51658496060316   1.0000   
         H         H         1.0       0.546866268109086   0.10939277920533552           0.7696240181731889 1.0000   
         H         H         1.0       0.5758638861713958  0.11712255369653146           0.801586791672044  1.0000   
         H         H         1.0       0.5971751189335884  0.10047580670128631           0.6491423143898108 1.0000   
         H         H         1.0       0.5688151815134527  0.09050710871340595           0.6125242269528524 1.0000   
         H         H         1.0       0.5031289736245229  0.10553353197359083           0.635193695626786  1.0000   
         H         H         1.0       0.4774751264893605  0.10326764496910679           0.692232611222275  1.0000   
         H         H         1.0       0.5063287253206769  0.08525636007369686           0.8388497022085785 1.0000   
         H         H         1.0       0.5323555351693484  0.08590615900833143           0.7707688951700612 1.0000   
         H         H         1.0       0.45222258899647677           0.1453469055290038 0.7111742614105776 1.0000   
         H         H         1.0       0.4482302801757967  0.1166462468890106  0.7368927932175864 1.0000   
         H         H         1.0       0.4909091377507992  0.12134232553167257           0.8527653830338056 1.0000   
         H         H         1.0       0.4902983656649556  0.15232622362188186           0.8408242347703273 1.0000   
         H         H         1.0       0.48740238243965595           0.06543037676169994          0.8527135554224717 1.0000   
         H         H         1.0       0.48857989592360684           0.0560170024146589 0.9480951696093216 1.0000   
         H         H         1.0       0.4597476320921595  0.09973238501493809           0.006991331797263189         1.0000   
         H         H         1.0       0.4574598159660811  0.10957975514202034           0.907875882895668  1.0000   
         H         H         1.0       0.4352702054454697  0.09810485747236863           0.8119435681483754 1.0000   
         H         H         1.0       0.4140431453622994  0.077877874430067   0.7731298750527447 1.0000   
         H         H         1.0       0.451960860661952   0.04474722868448877           0.7085097725896977 1.0000   
         H         H         1.0       0.47594809957575485           0.06563858998891514          0.7412858723028158 1.0000   
         C         C         1.0       0.24832546583280515           0.25341298691459535          0.2063038865714575 1.0000   
         C         C         1.0       0.24510270812553606           0.26585781912633333          0.16751696593924167          1.0000   
         C         C         1.0       0.25820662749548456           0.27222033681781277          0.1316357702153136 1.0000   
         C         C         1.0       0.27577242297755633           0.26792505488894025          0.1423406402156752 1.0000   
         C         C         1.0       0.2782510162370282  0.2556825096453529  0.18305901216073195          1.0000   
         C         C         1.0       0.2649101297114508  0.2496636013786391  0.21536794748273763          1.0000   
         H         H         1.0       0.23173436109290246           0.2683415484596401 0.15896947701431868          1.0000   
         H         H         1.0       0.25419590363077293           0.2795424212599884 0.0933551730158506 1.0000   
         H         H         1.0       0.29148792895598824           0.2525322999916055 0.19737937686676768          1.0000   
         H         H         1.0       0.26836573153073484           0.23996717621592983          0.24736067360508562          1.0000   
         C         C         1.0       0.2999100177585522  0.2940115077558073  0.198895957819026  1.0000   
         C         C         1.0       0.3049188981325723  0.2870870197984989  0.1459090826763751 1.0000   
         C         C         1.0       0.3209453086964923  0.29214279708778307           0.121305698375217  1.0000   
         C         C         1.0       0.33005224860558896           0.305400638829638  0.1482322256319078 1.0000   
         C         C         1.0       0.323982102195144   0.3130863247263243  0.19872060751429302          1.0000   
         C         C         1.0       0.3090889207485973  0.3068340277718317  0.22144914936196874          1.0000   
         C         C         1.0       0.29188360341588776           0.2758443608819552 0.1093485731935746 1.0000   
         C         C         1.0       0.2875801153288988  0.2884643537253735  0.058002256256768574         1.0000   
         C         C         1.0       0.29370020808383124           0.28632021857861156          0.0008025100059798617        1.0000   
         C         C         1.0       0.2864092665011724  0.296273761635224   0.9558189743873903 1.0000   
         C         C         1.0       0.27425191670698373           0.3081602397821467 0.9680808846522455 1.0000   
         C         C         1.0       0.26978938999414914           0.31176139235511974          0.025256405284859392         1.0000   
         C         C         1.0       0.27744163092615887           0.3027115484064496 0.0690209568197997 1.0000   
         C         C         1.0       0.31528630012762743           0.25080797705186075          0.11109434514297012          1.0000   
         C         C         1.0       0.3200891785603535  0.23512374773779293           0.09725838413164299          1.0000   
         C         C         1.0       0.31068166920403384           0.22527723507108816          0.05718650358384503          1.0000   
         C         C         1.0       0.29672531063192553           0.23329998711822536          0.032395615688994406         1.0000   
         C         C         1.0       0.292766521955913   0.24972688140768373           0.04503234011097201          1.0000   
         C         C         1.0       0.3012670767427039  0.2590511260528893  0.08769584832736044          1.0000   
         C         C         1.0       0.3154597309170859  0.2062999877330669  0.04694999557283941          1.0000   
         C         C         1.0       0.3697868811148016  0.1906582846104036  0.05392724984472386          1.0000   
         C         C         1.0       0.35718139191582293           0.17966695130359403          0.07280567350884648          1.0000   
         C         C         1.0       0.3403497148881168  0.1847930672445867  0.07178137554273256          1.0000   
         C         C         1.0       0.33553418719956446           0.20143866100484084          0.05560206488509256          1.0000   
         C         C         1.0       0.3490489185238502  0.21205930495248373           0.039517512918032294         1.0000   
         C         C         1.0       0.3658619182542232  0.20714015956824977           0.040039846996962725         1.0000   
         C         C         1.0       0.3136527413155106  0.20144750536723857           0.978901481504106  1.0000   
         C         C         1.0       0.3075502665304033  0.18643792199703896           0.9572966620106599 1.0000   
         C         C         1.0       0.3045044319084286  0.1837452135867383  0.90114645689381   1.0000   
         C         C         1.0       0.30917886785459187           0.19599194293281846          0.8599432854094775 1.0000   
         C         C         1.0       0.31735983792360545           0.21080774800536073          0.8813978481949872 1.0000   
         C         C         1.0       0.3180462181566941  0.21389019237160126           0.939610677990645  1.0000   
         C         C         1.0       0.3073111639535527  0.19439399032178972           0.14605852552165066          1.0000   
         C         C         1.0       0.29615505306297    0.18590941493799396           0.18227244589472846          1.0000   
         C         C         1.0       0.27974684545884326           0.18197912120028342          0.16666348692598576          1.0000   
         C         C         1.0       0.2741412410717846  0.18609591577755377           0.11217835413063375          1.0000   
         C         C         1.0       0.28551684334373845           0.1929163410658864 0.07320391576467156          1.0000   
         C         C         1.0       0.30228930283883365           0.1973665587179336 0.08956265175589473          1.0000   
         H         H         1.0       0.28663305820732676           0.29303718565711573          0.21699434239018314          1.0000   
         H         H         1.0       0.32647223520687724           0.2855056102461323 0.08643348753631663          1.0000   
         H         H         1.0       0.3433107944396553  0.3093982650071194  0.13770531145474021          1.0000   
         H         H         1.0       0.3040243842840628  0.313199026856404   0.25997261604828714          1.0000   
         H         H         1.0       0.30388369760909606           0.2777633857336716 0.9919430977998616 1.0000   
         H         H         1.0       0.29114227902385964           0.295397528304182  0.9112592869177359 1.0000   
         H         H         1.0       0.25953775153520015           0.3208416462470415 0.0402649060769289 1.0000   
         H         H         1.0       0.27353586472579483           0.30533785699509136          0.10962913409575668          1.0000   
         H         H         1.0       0.3215895375901718  0.2550194465523926  0.150779362344864  1.0000   
         H         H         1.0       0.3302957185978073  0.22924633470283184           0.12148293282384075          1.0000   
         H         H         1.0       0.2894997649769648  0.2264503750433361  0.9986942226116534 1.0000   
         H         H         1.0       0.2828815353576733  0.25573823873248996           0.021028848126822593         1.0000   
         H         H         1.0       0.3608840776412346  0.1660544192216978  0.07947141895852305          1.0000   
         H         H         1.0       0.33037990031876724           0.17500484955133275          0.07849037452158902          1.0000   
         H         H         1.0       0.34510639773678814           0.2241131503260158 0.02098855458155957          1.0000   
         H         H         1.0       0.3746234318602248  0.21619758630747443           0.025293265978392432         1.0000   
         H         H         1.0       0.30502571492138886           0.17532176868236002          0.9866382852919741 1.0000   
         H         H         1.0       0.29797058236189755           0.1712411955432485 0.8950160898925101 1.0000   
         H         H         1.0       0.3210086142217317  0.2213940608404296  0.8537746357577937 1.0000   
         H         H         1.0       0.32172877228186436           0.22754974978243633          0.9506170486913487 1.0000   
         H         H         1.0       0.32073991465473484           0.19629527709706457          0.16339537066974463          1.0000   
         H         H         1.0       0.3007627701746566  0.18245174434173478           0.2234890371747862 1.0000   
         H         H         1.0       0.2614257453298493  0.18328622070184858           0.09421081392988828          1.0000   
         H         H         1.0       0.2803438594102972  0.1946806243959543  0.02952528873084126          1.0000   
         C         C         1.0       0.3129618370073564  0.21812083010599295           0.7277393254274588 1.0000   
         C         C         1.0       0.29953118595900113           0.22814204431970603          0.7436990789544622 1.0000   
         C         C         1.0       0.29667557606763983           0.24409697511161   0.7215071962378519 1.0000   
         C         C         1.0       0.30848573992144684           0.251633092731983  0.685393246703009  1.0000   
         C         C         1.0       0.3227038884227105  0.24174454463940845           0.6707028329343456 1.0000   
         C         C         1.0       0.32460530644823005           0.22508369828295088          0.6910807585763354 1.0000   
         H         H         1.0       0.2903686233897387  0.2236481396571863  0.7738300800783743 1.0000   
         H         H         1.0       0.2850851164510903  0.25049336002884853           0.7326130556518319 1.0000   
         H         H         1.0       0.3321477466039562  0.2465766434452308  0.6377027149595575 1.0000   
         H         H         1.0       0.33442077779169244           0.21697141705135897          0.670826297659439  1.0000   
         C         C         1.0       0.3326270183293683  0.2819606369594673  0.6860292575142597 1.0000   
         C         C         1.0       0.31819673567839496           0.28304419437090556          0.6532785438595748 1.0000   
         C         C         1.0       0.31762905859926743           0.2966344720620313 0.6135615916305498 1.0000   
         C         C         1.0       0.3311090813582608  0.3071865342410574  0.605634133252298  1.0000   
         C         C         1.0       0.3455378677523806  0.3065021888549803  0.6404752014814812 1.0000   
         C         C         1.0       0.3461185965742913  0.2939591693871995  0.6819403426631171 1.0000   
         C         C         1.0       0.3034718348424893  0.2689967015771548  0.6534766619073699 1.0000   
         C         C         1.0       0.28868035762578553           0.279842637028966  0.6800726537341771 1.0000   
         C         C         1.0       0.2753594097934305  0.285620327506109   0.6453705988744765 1.0000   
         C         C         1.0       0.26164465834113293           0.29318417112118916          0.6683874759877005 1.0000   
         C         C         1.0       0.26251413989658695           0.29898024995971134          0.7252197653575185 1.0000   
         C         C         1.0       0.2764978746995469  0.2947462663841155  0.7580653070622122 1.0000   
         C         C         1.0       0.28988029766756734           0.2860294033705849 0.73734802205162   1.0000   
         C         C         1.0       0.3089396785071996  0.26308597148979024           0.5389707902090904 1.0000   
         C         C         1.0       0.3054923683294149  0.25375006602900313           0.4904053693056894 1.0000   
         C         C         1.0       0.29197352311340796           0.24190648806217668          0.48825647616926876          1.0000   
         C         C         1.0       0.27986474347259505           0.24371748569475352          0.5315263791561358 1.0000   
         C         C         1.0       0.2839463102423464  0.25171218325131167           0.5825553723376939 1.0000   
         C         C         1.0       0.29910024110956973           0.2614978076798267 0.5880554563349235 1.0000   
         C         C         1.0       0.2864748204208631  0.2282321023633217  0.44047364620645135          1.0000   
         C         C         1.0       0.32936617073641267           0.22119575864601387          0.3183997421480846 1.0000   
         C         C         1.0       0.33207666518234114           0.22150475840241762          0.37705570731527   1.0000   
         C         C         1.0       0.31896930473197493           0.22295080867883404          0.4134072741903173 1.0000   
         C         C         1.0       0.30209907360840427           0.22449986535198846          0.39485380387354563          1.0000   
         C         C         1.0       0.29911577938371864           0.22181929273170928          0.3369937919766825 1.0000   
         C         C         1.0       0.3124536026586619  0.21982647795805324           0.29783092269560557          1.0000   
         C         C         1.0       0.2696011385897629  0.23503742181334975           0.4097360467292072 1.0000   
         C         C         1.0       0.2537334402784192  0.22708991846350368           0.40895488363559734          1.0000   
         C         C         1.0       0.23991001648657254           0.23399697800341596          0.3801188188812881 1.0000   
         C         C         1.0       0.24233902766006649           0.24862298888410186          0.34657929771903945          1.0000   
         C         C         1.0       0.2578884830119312  0.25780544196123567           0.3536745058462813 1.0000   
         C         C         1.0       0.2713996834625624  0.25114998258289484           0.3834450440524184 1.0000   
         C         C         1.0       0.27704447106910574           0.19599416705307957          0.44811485829338404          1.0000   
         C         C         1.0       0.27669326361742924           0.18095529956981593          0.47732840689012634          1.0000   
         C         C         1.0       0.28596152037373856           0.17733925345459742          0.5270863429528253 1.0000   
         C         C         1.0       0.2962130256481208  0.19019957129042933           0.5475618742718682 1.0000   
         C         C         1.0       0.29599231066274667           0.2060346810053429 0.5215662151422469 1.0000   
         C         C         1.0       0.28625560389503596           0.20989590531843777          0.4725385027337304 1.0000   
         H         H         1.0       0.33315269958802174           0.2721097325164113 0.7197316075418437 1.0000   
         H         H         1.0       0.3062920345115016  0.30012670302043226           0.5878510945207852 1.0000   
         H         H         1.0       0.3300728432192174  0.31512552272967265           0.5688987254332933 1.0000   
         H         H         1.0       0.3561683867598964  0.2916954607188533  0.716417759301243  1.0000   
         H         H         1.0       0.2760361827667414  0.2839347829428352  0.599868022863077  1.0000   
         H         H         1.0       0.24946301002170398           0.2931748455007644 0.6459826063752837 1.0000   
         H         H         1.0       0.2760331507819901  0.29822798634674474           0.8050922972616169 1.0000   
         H         H         1.0       0.3004365538529544  0.28282568496303173           0.7642685179710185 1.0000   
         H         H         1.0       0.3190487553201739  0.2715421102245888  0.5347697182197441 1.0000   
         H         H         1.0       0.3124268119591726  0.2566863226315675  0.45296507724810825          1.0000   
         H         H         1.0       0.2676580971280268  0.23701530434672666           0.5367837892819388 1.0000   
         H         H         1.0       0.2752935285429624  0.25106510753126343           0.6168418545015603 1.0000   
         H         H         1.0       0.34517020529868936           0.22155678580501378          0.3963656782534114 1.0000   
         H         H         1.0       0.3211677972744719  0.2234582263671253  0.4583232287604714 1.0000   
         H         H         1.0       0.28602446240314067           0.22137829266474454          0.3180334273790477 1.0000   
         H         H         1.0       0.30990602893684677           0.2215339339791343 0.2506680640871797 1.0000   
         H         H         1.0       0.25168147854772666           0.21631889389009665          0.4350234697253745 1.0000   
         H         H         1.0       0.22713155969858775           0.22691615139245502          0.38229902103640456          1.0000   
         H         H         1.0       0.26154858139387493           0.2685843185940282 0.3273022522147187 1.0000   
         H         H         1.0       0.28400067379317956           0.2573914541327486 0.3829526931286156 1.0000   
         H         H         1.0       0.2694796621994982  0.1973915903731239  0.4115728767246563 1.0000   
         H         H         1.0       0.2692523077913321  0.17059173184011217           0.46062119923895944          1.0000   
         H         H         1.0       0.3032233210885512  0.1877868633866317  0.5870382630343153 1.0000   
         H         H         1.0       0.30386026178796527           0.2158056979177277 0.5426771509047666 1.0000   
         C         C         1.0       0.2816681947086665  0.344608247430398   0.926082611442022  1.0000   
         C         C         1.0       0.27189385702103935           0.35352316940815876          0.9665632282313826 1.0000   
         C         C         1.0       0.27993233459115247           0.36120661158875145          0.013496455560277454         1.0000   
         C         C         1.0       0.29798535952138516           0.3633927344117247 0.014630904145730426         1.0000   
         C         C         1.0       0.3078896472042643  0.3546544973012377  0.9715463164701074 1.0000   
         C         C         1.0       0.29948769249738594           0.34527838290951335          0.9297959640859749 1.0000   
         H         H         1.0       0.2585007369874316  0.3527764397212939  0.971607016262546  1.0000   
         H         H         1.0       0.2722696913137034  0.3646539033202596  0.05027389820040117          1.0000   
         H         H         1.0       0.32172434867776367           0.3560935346155816 0.964072518440445  1.0000   
         H         H         1.0       0.3065966044168332  0.3394101796597697  0.8937490128532458 1.0000   
         C         C         1.0       0.33408876815314353           0.3539218276408894 0.06895389149777807          1.0000   
         C         C         1.0       0.325792940431532   0.36941461998097275           0.08406009803564429          1.0000   
         C         C         1.0       0.33568770350550925           0.38293195641229005          0.10387164004356596          1.0000   
         C         C         1.0       0.35282066713672383           0.3809352890292824 0.10904975141912197          1.0000   
         C         C         1.0       0.3609528102885408  0.3667241002093796  0.08671511958086975          1.0000   
         C         C         1.0       0.3514363490322141  0.3528308141946229  0.07190508561724962          1.0000   
         C         C         1.0       0.3054838873641991  0.37292132959860064           0.07171137211293742          1.0000   
         C         C         1.0       0.29653390526570633           0.36677497620993815          0.12906408987400622          1.0000   
         C         C         1.0       0.29492742226601737           0.37774391696073556          0.1742298273491138 1.0000   
         C         C         1.0       0.2897024284319453  0.3726224243391231  0.22920752556986754          1.0000   
         C         C         1.0       0.2844172543302927  0.355808400959743   0.23977888996422453          1.0000   
         C         C         1.0       0.2851416155911939  0.34420973436936303           0.19216780527779173          1.0000   
         C         C         1.0       0.29254008880986765           0.3492908724062418 0.13989918072704288          1.0000   
         C         C         1.0       0.3109133952993694  0.40163638529563356           0.013152833190121838         1.0000   
         C         C         1.0       0.3094314647832958  0.41960414767301546           0.014497049775615833         1.0000   
         C         C         1.0       0.29707966255389895           0.4276571189970175 0.046608647130118586         1.0000   
         C         C         1.0       0.28391918842158254           0.417782176338082  0.06892577957964141          1.0000   
         C         C         1.0       0.2852324063860393  0.40037937766642173           0.06995277695587299          1.0000   
         C         C         1.0       0.30068968473109436           0.39246505492756295          0.05287435911706106          1.0000   
         C         C         1.0       0.3003038260284541  0.4469698284227603  0.0568694710248876 1.0000   
         C         C         1.0       0.35520605432067065           0.45705383800196947          0.0683887905065641 1.0000   
         C         C         1.0       0.3442557241884046  0.46932560133255546           0.043333122237481314         1.0000   
         C         C         1.0       0.3269003238177272  0.46576211232207704           0.039679368483983346         1.0000   
         C         C         1.0       0.320193375147278   0.45180431852948216           0.06618101834366041          1.0000   
         C         C         1.0       0.3304976619718114  0.4417239782593559  0.10194876049865464          1.0000   
         C         C         1.0       0.3481368078603701  0.4437382233779551  0.10048191627821135          1.0000   
         C         C         1.0       0.2938108007471219  0.4531404970201383  0.1181626655568695 1.0000   
         C         C         1.0       0.29172385771609066           0.4430606094798283 0.16817432073437955          1.0000   
         C         C         1.0       0.28506929894496646           0.45014530618113935          0.21639092394602977          1.0000   
         C         C         1.0       0.2793312319647593  0.46645658274635565           0.2184120285279112 1.0000   
         C         C         1.0       0.2800928714615289  0.4764690160760705  0.1692297329678003 1.0000   
         C         C         1.0       0.2880177289651901  0.47056707317407065           0.12202332296640694          1.0000   
         C         C         1.0       0.27274699710523065           0.45667822034571287          0.004258278397708093         1.0000   
         C         C         1.0       0.26335900105825266           0.4590801044968957 0.9561882782527056 1.0000   
         C         C         1.0       0.27111384926546483           0.4614996534781436 0.9033200141926949 1.0000   
         C         C         1.0       0.28882894538611054           0.4603924001590315 0.8990972822870827 1.0000   
         C         C         1.0       0.2980108608112908  0.4560166870786898  0.9457367463544892 1.0000   
         C         C         1.0       0.29026177910789636           0.4541095727268434 0.9999089362378737 1.0000   
         H         H         1.0       0.32766646508769454           0.34232304424391474          0.05368068632216083          1.0000   
         H         H         1.0       0.330325781155224   0.3943151206512884  0.11424717213028489          1.0000   
         H         H         1.0       0.3601447074335004  0.3913613364323797  0.12452099909643241          1.0000   
         H         H         1.0       0.35716426372887095           0.34081013913081964          0.05578698440165941          1.0000   
         H         H         1.0       0.2990684172844718  0.3915482993866258  0.16683584664464382          1.0000   
         H         H         1.0       0.2899619704793946  0.3816206966479121  0.2644563586949912 1.0000   
         H         H         1.0       0.28121634889655395           0.3303058266224602 0.19974953478924387          1.0000   
         H         H         1.0       0.2947415134082578  0.33898797448965895           0.10709585992773296          1.0000   
         H         H         1.0       0.32297398449013653           0.3959445915423542 0.9959610671579948 1.0000   
         H         H         1.0       0.3191558947134032  0.42510505067668686           0.9869586432869032 1.0000   
         H         H         1.0       0.27396187167230784           0.42367870350308806          0.09800077376952698          1.0000   
         H         H         1.0       0.27579395075000007           0.3934879002843319 0.09511253046465094          1.0000   
         H         H         1.0       0.3491851879381515  0.4803484561225405  0.022770560929501027         1.0000   
         H         H         1.0       0.318182583520738   0.4751266607709201  0.021811844079120624         1.0000   
         H         H         1.0       0.3246405865369961  0.4314057792967822  0.1293303767742695 1.0000   
         H         H         1.0       0.35592588408689285           0.4343374374337589 0.12290209804693975          1.0000   
         H         H         1.0       0.29565786751397993           0.42979351636276397          0.1677095423510373 1.0000   
         H         H         1.0       0.28131724982039463           0.44307192237252074          0.25566832787689786          1.0000   
         H         H         1.0       0.2747707017413094  0.4893059793199167  0.1697956155024618 1.0000   
         H         H         1.0       0.29089100946654606           0.47809047313557834          0.08640081712687087          1.0000   
         H         H         1.0       0.265626430380871   0.4542192292285539  0.04286868483018291          1.0000   
         H         H         1.0       0.24908618611283878           0.4579135326283935 0.958507005306327  1.0000   
         H         H         1.0       0.2962488670651959  0.46113714038604425           0.8576663793504387 1.0000   
         H         H         1.0       0.3108699729191722  0.4523067237576614  0.9352996711394829 1.0000   
         C         C         1.0       0.25801134350864574           0.3428128181418907 0.7227740569122535 1.0000   
         C         C         1.0       0.2510386354601278  0.3584504579990614  0.7213268047871517 1.0000   
         C         C         1.0       0.2616616451954587  0.37269067987435694           0.7285346943342502 1.0000   
         C         C         1.0       0.27955762675715834           0.371333234575209  0.7354074401292531 1.0000   
         C         C         1.0       0.28608236965845046           0.35489938460700493          0.728899528155419  1.0000   
         C         C         1.0       0.2753622268179748  0.34097491618615244           0.719347024085633  1.0000   
         H         H         1.0       0.23727908453745705           0.3606567595737647 0.7215359642559398 1.0000   
         H         H         1.0       0.256032242914813   0.3852480325259152  0.7299439678361522 1.0000   
         H         H         1.0       0.3000582146948235  0.3526609266092344  0.7284883690535597 1.0000   
         H         H         1.0       0.2808983512906725  0.328911522258594   0.7083437416487683 1.0000   
         C         C         1.0       0.31393858187271184           0.3753517987183854 0.8138422410976776 1.0000   
         C         C         1.0       0.31017918751645646           0.3865534509825763 0.7676583385785869 1.0000   
         C         C         1.0       0.323823072014804   0.3954257322563582  0.7448054745515632 1.0000   
         C         C         1.0       0.34068912139707747           0.39154139000064275          0.7583022151980218 1.0000   
         C         C         1.0       0.3445035669761381  0.3786937436020824  0.7975902499282905 1.0000   
         C         C         1.0       0.3310713698851354  0.3710041571697398  0.8287288968149011 1.0000   
         C         C         1.0       0.2914424012324259  0.3882969418792092  0.7397172676934675 1.0000   
         C         C         1.0       0.283617397855037   0.4043393591422485  0.7726234100554111 1.0000   
         C         C         1.0       0.2883512637677917  0.42081936371511375           0.7587952348439656 1.0000   
         C         C         1.0       0.27811861174664526           0.43495420612331437          0.7737363090135024 1.0000   
         C         C         1.0       0.264397311119547   0.4317387228626661  0.8098864881199687 1.0000   
         C         C         1.0       0.2624471677986575  0.4160768414876237  0.8370535513843328 1.0000   
         C         C         1.0       0.27177783299560726           0.40228428334911903          0.8171721778181581 1.0000   
         C         C         1.0       0.3042798027982889  0.38257918944340913           0.6373375716701899 1.0000   
         C         C         1.0       0.30669567235732575           0.3874978595111713 0.5791302314712085 1.0000   
         C         C         1.0       0.29800897421656725           0.40173047084810615          0.5560977016770173 1.0000   
         C         C         1.0       0.28657749779033503           0.4100792885224014 0.5902743744505597 1.0000   
         C         C         1.0       0.28245085861308566           0.4035204344868794 0.6427649464191504 1.0000   
         C         C         1.0       0.29223840379986626           0.3912018945115462 0.6704677918099052 1.0000   
         C         C         1.0       0.30154563722180455           0.4081734757099999 0.48991815754435597          1.0000   
         C         C         1.0       0.3533069723752573  0.4301463158122304  0.5156147378089037 1.0000   
         C         C         1.0       0.35169973428094775           0.4134182283735731 0.4976072015683056 1.0000   
         C         C         1.0       0.3349483034162937  0.4063623767856894  0.48692144016361705          1.0000   
         C         C         1.0       0.32006447229727775           0.4162633537919669 0.49859486392900815          1.0000   
         C         C         1.0       0.3224086237485868  0.4333204190711839  0.5161479095095802 1.0000   
         C         C         1.0       0.33867055246109146           0.43968971327022255          0.5286000871546966 1.0000   
         C         C         1.0       0.28766786601972005           0.42161089264057894          0.46356436589419603          1.0000   
         C         C         1.0       0.2700814421424254  0.4203209026090431  0.47055825350157926          1.0000   
         C         C         1.0       0.25983631413916    0.4347575384593485  0.46851134008344414          1.0000   
         C         C         1.0       0.26648248760968385           0.4501424140355257 0.449888228077143  1.0000   
         C         C         1.0       0.28351208183692056           0.4503242960126946 0.430471310332333  1.0000   
         C         C         1.0       0.2930072437215378  0.4357590253743235  0.43332375991905453          1.0000   
         C         C         1.0       0.30846985769519575           0.3886969329117153 0.3956065099929187 1.0000   
         C         C         1.0       0.30681686861827295           0.3739243043967032 0.3676188507578763 1.0000   
         C         C         1.0       0.29290259821935327           0.36327561636409644          0.37555022333332094          1.0000   
         C         C         1.0       0.28228025816086955           0.36667139071290245          0.42217295633078245          1.0000   
         C         C         1.0       0.28540555237086623           0.3809771511167775 0.45495604609151274          1.0000   
         C         C         1.0       0.29907534611458486           0.39179077945444785          0.44536400937221   1.0000   
         H         H         1.0       0.3022339375317007  0.3690967780071485  0.8314249030612113 1.0000   
         H         H         1.0       0.32010529282065925           0.4050461768934575 0.7114177868959999 1.0000   
         H         H         1.0       0.35181114395989643           0.3986718334432072 0.7387212948259275 1.0000   
         H         H         1.0       0.3334306915549028  0.36044454764605416           0.8536438636648063 1.0000   
         H         H         1.0       0.2979591462636477  0.424916499305032   0.7267579373630064 1.0000   
         H         H         1.0       0.2810902263785885  0.4464652607668998  0.753190942360868  1.0000   
         H         H         1.0       0.25226854966150386           0.4151890650237149 0.8678887952031894 1.0000   
         H         H         1.0       0.267389409107206   0.38971462405994894           0.8331194408139858 1.0000   
         H         H         1.0       0.31106045182116066           0.3721719868811681 0.6564336859627413 1.0000   
         H         H         1.0       0.3161305012140353  0.3802367920590503  0.5514033336687447 1.0000   
         H         H         1.0       0.27992158993296773           0.4220512793185314 0.5768577990959606 1.0000   
         H         H         1.0       0.2728852824558861  0.4110618749126736  0.6679387155350712 1.0000   
         H         H         1.0       0.3627184459058636  0.4046649598643635  0.4915171266912934 1.0000   
         H         H         1.0       0.33529547760189965           0.3926901245986706 0.47807589931592814          1.0000   
         H         H         1.0       0.3109317163082295  0.4410363654218068  0.5254484292191418 1.0000   
         H         H         1.0       0.3408670006051899  0.45327841580113126           0.5385171390941373 1.0000   
         H         H         1.0       0.26653727401862154           0.408699889818536  0.4859157393369927 1.0000   
         H         H         1.0       0.24637443474836768           0.43528658097623063          0.4799720755220235 1.0000   
         H         H         1.0       0.28809628275006205           0.4626726359006421 0.41516313675226296          1.0000   
         H         H         1.0       0.30584760993952803           0.43633174628575866          0.41844928217691824          1.0000   
         H         H         1.0       0.31808410022444544           0.39689219366534323          0.38140290209592626          1.0000   
         H         H         1.0       0.3148238431878418  0.3717075400131681  0.331571826185867  1.0000   
         H         H         1.0       0.27318643891243777           0.3563275582358369 0.43649633914248626          1.0000   
         H         H         1.0       0.27845307856734924           0.38171842427177394          0.49270370404643543          1.0000   
         C         C         1.0       0.39859263079479296           0.32091136458529557          0.9998995956136342 1.0000   
         C         C         1.0       0.4145457877566965  0.3222520722270826  0.020909130609857662         1.0000   
         C         C         1.0       0.41914342853644293           0.3158101823453851 0.07537536803753885          1.0000   
         C         C         1.0       0.4066216706605188  0.3096980384829046  0.11271985521071007          1.0000   
         C         C         1.0       0.3903751306638325  0.3092077654176255  0.0895517397151595 1.0000   
         C         C         1.0       0.38618891621521645           0.31498434729450053          0.03522409619955158          1.0000   
         H         H         1.0       0.4249208735935469  0.3259918880904692  0.9907655337618252 1.0000   
         H         H         1.0       0.4326864354038534  0.31476206120122485           0.08647690212462522          1.0000   
         H         H         1.0       0.3789722773387297  0.30472811122601046           0.11171354096887844          1.0000   
         H         H         1.0       0.3735539948734869  0.3126890149385888  0.0154167137659571 1.0000   
         C         C         1.0       0.38977247302577095           0.32661874712265226          0.2135420387831563 1.0000   
         C         C         1.0       0.3947529314457843  0.30897999146559474           0.21572421871884956          1.0000   
         C         C         1.0       0.3835445723028044  0.298686161928112   0.24903541515714325          1.0000   
         C         C         1.0       0.36831858657648786           0.3045301154297742 0.27206477111474664          1.0000   
         C         C         1.0       0.3630397543543787  0.3211118584971606  0.25655340675644533          1.0000   
         C         C         1.0       0.3735676533264123  0.33275115134520517           0.2299822323481552 1.0000   
         C         C         1.0       0.41029805512415424           0.30276203055869966          0.1767413776807281 1.0000   
         C         C         1.0       0.4262324885717587  0.31042977386379356           0.21401507323446012          1.0000   
         C         C         1.0       0.4301620686845413  0.30373171170670143           0.2673139503035556 1.0000   
         C         C         1.0       0.4420968377610259  0.31064841752864564           0.30210415847342387          1.0000   
         C         C         1.0       0.4525511654632384  0.32393581259056003           0.2827605548033092 1.0000   
         C         C         1.0       0.44890364383194575           0.33172345036497813          0.22971008437218707          1.0000   
         C         C         1.0       0.4369761859887469  0.32388269657152624           0.19692435433159225          1.0000   
         C         C         1.0       0.3993087860971076  0.27237306368400527           0.16180146875964385          1.0000   
         C         C         1.0       0.4011642859344274  0.2549058608875125  0.1732357374509014 1.0000   
         C         C         1.0       0.4176530601505916  0.247887804833216   0.1790849434226136 1.0000   
         C         C         1.0       0.43119353542657257           0.2591205204905273 0.1650973092651789 1.0000   
         C         C         1.0       0.4291956235837752  0.2763409593368419  0.16109169183881009          1.0000   
         C         C         1.0       0.4131360953036322  0.2830763751080727  0.16854992285574877          1.0000   
         C         C         1.0       0.42090797645505074           0.22971058816321288          0.20752333155084313          1.0000   
         C         C         1.0       0.3720583364339605  0.20457154076972148           0.24111419096434347          1.0000   
         C         C         1.0       0.3846832505129548  0.20340149035829302           0.27930789229139985          1.0000   
         C         C         1.0       0.4009789962044948  0.20757337196993655           0.2640893577038547 1.0000   
         C         C         1.0       0.4042984886341033  0.21685935007256985           0.2138507152070255 1.0000   
         C         C         1.0       0.39118393219934666           0.21742010681856305          0.1738692722782938 1.0000   
         C         C         1.0       0.3748277397145216  0.21115928757063504           0.18566719792357894          1.0000   
         C         C         1.0       0.42806764067887837           0.2350444589092548 0.26750945972616463          1.0000   
         C         C         1.0       0.4453204348198832  0.2347044100673781  0.2791180839742148 1.0000   
         C         C         1.0       0.4521119257369026  0.24209490602134867           0.3274754940603732 1.0000   
         C         C         1.0       0.4413837879981194  0.24810829030388118           0.37157311626150297          1.0000   
         C         C         1.0       0.4235790161969248  0.2483690505739914  0.3588105565445557 1.0000   
         C         C         1.0       0.4173283808080713  0.24326227374464274           0.3066865982720549 1.0000   
         C         C         1.0       0.44117239248671136           0.20349666347569567          0.19184310919352876          1.0000   
         C         C         1.0       0.45316743489316264           0.19449516631698657          0.1598151837555601 1.0000   
         C         C         1.0       0.4574461914836907  0.19911897171159984           0.10468453558535583          1.0000   
         C         C         1.0       0.4498397017691399  0.21280014999767488           0.08243625351457483          1.0000   
         C         C         1.0       0.4381335935227883  0.22212414304210099           0.11477750068368378          1.0000   
         C         C         1.0       0.43393475934635245           0.21799045431301786          0.17070100212563874          1.0000   
         H         H         1.0       0.3969244832371141  0.3354297357610183  0.1907447712195955 1.0000   
         H         H         1.0       0.38681539521977926           0.2850534057160712 0.2530380693284212 1.0000   
         H         H         1.0       0.3598217865744805  0.2959044589917365  0.2969072123929379 1.0000   
         H         H         1.0       0.36975678665260575           0.34570540091942925          0.22298939351854563          1.0000   
         H         H         1.0       0.42201546582874583           0.29367945036124243          0.2853995941546026 1.0000   
         H         H         1.0       0.44265930942202586           0.30512896543703266          0.34209370528806443          1.0000   
         H         H         1.0       0.4574685437693795  0.3402647377225248  0.21466752687591162          1.0000   
         H         H         1.0       0.4343691985398095  0.3314203786355222  0.15965497052488611          1.0000   
         H         H         1.0       0.3861576241331532  0.27733717781886696           0.15711399704510792          1.0000   
         H         H         1.0       0.38910395952580795           0.24847606043784018          0.18355078360850482          1.0000   
         H         H         1.0       0.4436886435849988  0.25362464636004584           0.16034367513931727          1.0000   
         H         H         1.0       0.4399621293779341  0.28379061731805166           0.15211134598005613          1.0000   
         H         H         1.0       0.3817066167034417  0.1970803143197725  0.3185372603181792 1.0000   
         H         H         1.0       0.4104746095370495  0.2055812608800806  0.2941452211587269 1.0000   
         H         H         1.0       0.39392975074809594           0.22423323785304453          0.1349741782823129 1.0000   
         H         H         1.0       0.36392357204556547           0.21424291597397885          0.15621598983738913          1.0000   
         H         H         1.0       0.4541478882481162  0.22986372478650832           0.2461674705905961 1.0000   
         H         H         1.0       0.46595325308648533           0.24045856103759236          0.33322935907052714          1.0000   
         H         H         1.0       0.41549776277783024           0.2540271149334896 0.3931667383541586 1.0000   
         H         H         1.0       0.4042049721427768  0.2445567068957089  0.3003992753143922 1.0000   
         H         H         1.0       0.4384814946661733  0.19953837492838708           0.23472243920199357          1.0000   
         H         H         1.0       0.4592140718143946  0.18442275309830236           0.18189406586275914          1.0000   
         H         H         1.0       0.45134194729903115           0.21772361562960768          0.03999459475452505          1.0000   
         H         H         1.0       0.432755859410221   0.23301653188586635           0.08951885440708507          1.0000   
         C         C         1.0       0.44353564032380527           0.251974953418399  0.5305314530927743 1.0000   
         C         C         1.0       0.45714211667929766           0.25597124966931556          0.5640250358106056 1.0000   
         C         C         1.0       0.45434543377334696           0.26453458109784095          0.6146385096990168 1.0000   
         C         C         1.0       0.4380038830473905  0.2700330446371684  0.6305081738470694 1.0000   
         C         C         1.0       0.42479433313081233           0.26668200611271575          0.5935793916697214 1.0000   
         C         C         1.0       0.4276103855062454  0.25791792864999596           0.5424530187198254 1.0000   
         H         H         1.0       0.4693440342568544  0.2522036130153078  0.5530458566984324 1.0000   
         H         H         1.0       0.46495510743656265           0.26676047072502296          0.6435814816781903 1.0000   
         H         H         1.0       0.4114977067670585  0.2676725199398061  0.604085507341846  1.0000   
         H         H         1.0       0.41722399699775964           0.25475802042411766          0.5145371648049832 1.0000   
         C         C         1.0       0.41469307017390766           0.302387259058084  0.6392723371459826 1.0000   
         C         C         1.0       0.41756687135439    0.2925004310306464  0.6870016766141964 1.0000   
         C         C         1.0       0.40527839099039714           0.29314727963741605          0.7323921069855154 1.0000   
         C         C         1.0       0.3910822907072913  0.30338495474076316           0.7278302545355608 1.0000   
         C         C         1.0       0.38791375678523804           0.3114520402492604 0.678040374218563  1.0000   
         C         C         1.0       0.40016659043578306           0.31188510325861124          0.63359331405594   1.0000   
         C         C         1.0       0.4336540532577284  0.27989761252383333           0.6899436921799178 1.0000   
         C         C         1.0       0.44684283850918066           0.29442145963226446          0.713567857774619  1.0000   
         C         C         1.0       0.44803000979140367           0.29792743602145444          0.7712962426209542 1.0000   
         C         C         1.0       0.46240477072161024           0.3071056782254665 0.7908108534305633 1.0000   
         C         C         1.0       0.47389111747980867           0.3145338040247756 0.7525864334727561 1.0000   
         C         C         1.0       0.47186760232982145           0.31243615299399147          0.6949161961569963 1.0000   
         C         C         1.0       0.45810874186331013           0.30237332851201243          0.6753865769962791 1.0000   
         C         C         1.0       0.4193005661831894  0.2558133976940147  0.7521875004957401 1.0000   
         C         C         1.0       0.4186295902970454  0.24770698998542398           0.8036990044007523 1.0000   
         C         C         1.0       0.43246577905834255           0.2482136800973758 0.8416648608410267 1.0000   
         C         C         1.0       0.4483626349071359  0.2529402524684565  0.8164421660583324 1.0000   
         C         C         1.0       0.4489819880272106  0.26088601667739914           0.7641747615054573 1.0000   
         C         C         1.0       0.4338558644216843  0.26441345097220503           0.7359879007319855 1.0000   
         C         C         1.0       0.4296457322085096  0.24843248164799472           0.9116828156808258 1.0000   
         C         C         1.0       0.408323128893565   0.2020267462081846  0.9826693146799915 1.0000   
         C         C         1.0       0.4072035450446277  0.2164923292857261  0.01220303421040314          1.0000   
         C         C         1.0       0.41210407411219696           0.23190969881201937          0.989626463407653  1.0000   
         C         C         1.0       0.42067733710409305           0.23213230781393282          0.9361088697481524 1.0000   
         C         C         1.0       0.42251742948768484           0.21609046402011053          0.9078540924877561 1.0000   
         C         C         1.0       0.41600533195773065           0.20165539863379828          0.9302733710441701 1.0000   
         C         C         1.0       0.41943172817647084           0.26574900293101794          0.9132827365755346 1.0000   
         C         C         1.0       0.4273582686274883  0.280969482305693   0.9047054723928838 1.0000   
         C         C         1.0       0.4178137117327736  0.2956320091067673  0.8968318402065246 1.0000   
         C         C         1.0       0.4005035911957336  0.2954500903813483  0.9043975238615556 1.0000   
         C         C         1.0       0.39225859572675426           0.28018431349885675          0.9181864349418997 1.0000   
         C         C         1.0       0.40166313970156425           0.26551423318361966          0.9205015813910388 1.0000   
         C         C         1.0       0.4450218627666814  0.2608007794218795  0.0020609420945882917        1.0000   
         C         C         1.0       0.4603286234973708  0.2638487006570498  0.028884120474038433         1.0000   
         C         C         1.0       0.47518610095523367           0.25490948531537483          0.012062245208419586         1.0000   
         C         C         1.0       0.47495577696262575           0.24397696677224567          0.9676443024207283 1.0000   
         C         C         1.0       0.45975590494878726           0.24099627858298536          0.940102308074     1.0000   
         C         C         1.0       0.4451712305205853  0.25011049643218414           0.9545374171032138 1.0000   
         H         H         1.0       0.42317651160957087           0.30344042748024763          0.6036971654801833 1.0000   
         H         H         1.0       0.4073527884573067  0.28657960493049306           0.7730285227837099 1.0000   
         H         H         1.0       0.38171090852973766           0.30370641372291735          0.7639613441818067 1.0000   
         H         H         1.0       0.39813788273411493           0.31989421593600453          0.5965030502364789 1.0000   
         H         H         1.0       0.4386812695349096  0.2934066246659634  0.8012120136532314 1.0000   
         H         H         1.0       0.4634858400388696  0.30893353152429054           0.8374264193812897 1.0000   
         H         H         1.0       0.48128542749762615           0.31954788563239944          0.6685906591098401 1.0000   
         H         H         1.0       0.456097587609797   0.30037410929180325           0.6298696707633754 1.0000   
         H         H         1.0       0.40692624802586397           0.2581819816572303 0.7320187020439654 1.0000   
         H         H         1.0       0.40625575549959697           0.24389212938767016          0.8206028171077189 1.0000   
         H         H         1.0       0.4604793276978028  0.2540485475976099  0.8389570107603647 1.0000   
         H         H         1.0       0.4611486646597079  0.2664120264569103  0.7507102145231872 1.0000   
         H         H         1.0       0.4020510066640065  0.21532798912164056           0.05596636447822689          1.0000   
         H         H         1.0       0.41362047029788807           0.24298597387453227          0.01834298888646213          1.0000   
         H         H         1.0       0.42985649152865213           0.2161386718234906 0.8691909238626011 1.0000   
         H         H         1.0       0.4172638101492301  0.18963959492334498           0.9103319612759715 1.0000   
         H         H         1.0       0.4412318322947142  0.28081741121537396           0.9022800029896226 1.0000   
         H         H         1.0       0.4243192377215542  0.307225267162041   0.8859882063369015 1.0000   
         H         H         1.0       0.37866951616536154           0.2801651865402678 0.9236646286491624 1.0000   
         H         H         1.0       0.3942770273094237  0.2539267574527261  0.927036333124038  1.0000   
         H         H         1.0       0.4322158438024605  0.26493374221517124           0.017640461746081915         1.0000   
         H         H         1.0       0.4607411297497053  0.27279578029995905           0.06671018488239833          1.0000   
         H         H         1.0       0.48635308198556954           0.2380244944888987 0.949867919341263  1.0000   
         H         H         1.0       0.46079010301004814           0.23277600147765007          0.9039723768659644 1.0000   
         C         C         1.0       0.4567216887387658  0.3617183461684443  0.33609644031762337          1.0000   
         C         C         1.0       0.4701005782001093  0.37178900225741757           0.3165832164362088 1.0000   
         C         C         1.0       0.468707070169659   0.38110351289125466           0.26710318676679257          1.0000   
         C         C         1.0       0.4538762178489737  0.38160295878357475           0.23746395015114166          1.0000   
         C         C         1.0       0.4395990428687839  0.37342197903456276           0.2613045098400585 1.0000   
         C         C         1.0       0.4408441415118782  0.36377351186751844           0.31112934030585604          1.0000   
         H         H         1.0       0.4831886822040934  0.3702224185474253  0.33638173132963173          1.0000   
         H         H         1.0       0.4805766974955042  0.38811007312768697           0.25503469902995657          1.0000   
         H         H         1.0       0.42631938272992354           0.37692224884348324          0.24897463515290047          1.0000   
         H         H         1.0       0.4302113415723671  0.35583439167737774           0.32552088486985375          1.0000   
         C         C         1.0       0.43350117555418466           0.3730000334393315 0.12096184847957206          1.0000   
         C         C         1.0       0.4369430260038212  0.3895476829598601  0.13755863037681473          1.0000   
         C         C         1.0       0.4278197840840674  0.40230719649829405           0.10846574023303955          1.0000   
         C         C         1.0       0.413327877482826   0.39873712174183246           0.07889635220878954          1.0000   
         C         C         1.0       0.40826554851653296           0.38170336187521176          0.07419186089217256          1.0000   
         C         C         1.0       0.4193101747437085  0.3691406248636031  0.08900687543544737          1.0000   
         C         C         1.0       0.45108354438002746           0.3943287042525952 0.18125030062377642          1.0000   
         C         C         1.0       0.46786887141175226           0.39439141990009524          0.1425394625048036 1.0000   
         C         C         1.0       0.47375703821003823           0.40955206716785686          0.11714563968293029          1.0000   
         C         C         1.0       0.4882166796647377  0.4097978853786799  0.08473522912215546          1.0000   
         C         C         1.0       0.49578463511484017           0.3947129526864018 0.06821110524392981          1.0000   
         C         C         1.0       0.490242202182201   0.3799521237644233  0.08961841908227795          1.0000   
         C         C         1.0       0.4757440019080516  0.3797065729432067  0.12658620478102992          1.0000   
         C         C         1.0       0.429859617515125   0.4146448428206591  0.23398450809141816          1.0000   
         C         C         1.0       0.4274532676384786  0.4273722602369081  0.2750931886060018 1.0000   
         C         C         1.0       0.4410056752223434  0.43754147128035387           0.29759528789570283          1.0000   
         C         C         1.0       0.4569539744235173  0.4349766371490965  0.26983412975722804          1.0000   
         C         C         1.0       0.45998216222437927           0.42224858750187144          0.23282624271884658          1.0000   
         C         C         1.0       0.44671409320929056           0.4108159463247916 0.2162670950276328 1.0000   
         C         C         1.0       0.4403285099044594  0.4466982528776361  0.3610194519056445 1.0000   
         C         C         1.0       0.3913888429458383  0.45716317185515953           0.44836454208430365          1.0000   
         C         C         1.0       0.40611071931473164           0.45403083036666775          0.4806982669212153 1.0000   
         C         C         1.0       0.4213171674100173  0.45090530994114564           0.45205442546568364          1.0000   
         C         C         1.0       0.42316658442678146           0.4516502309075864 0.3922089243059186 1.0000   
         C         C         1.0       0.4076740140579536  0.4540258045779412  0.36206048723381906          1.0000   
         C         C         1.0       0.392753050248174   0.4568894953590736  0.3902442262816706 1.0000   
         C         C         1.0       0.4485508828439413  0.464947160255719   0.3523375112917487 1.0000   
         C         C         1.0       0.443904005878355   0.4743768590605078  0.30338314990898185          1.0000   
         C         C         1.0       0.45120028011241314           0.4900722972147517 0.2941123819290947 1.0000   
         C         C         1.0       0.46475874266317946           0.4955080827233295 0.32612205751550255          1.0000   
         C         C         1.0       0.46926920513554343           0.4866454170551256 0.3746846812893232 1.0000   
         C         C         1.0       0.4603661899634965  0.4723364330867505  0.3901426217198848 1.0000   
         C         C         1.0       0.466409821593133   0.43076675060814296           0.41123417604934054          1.0000   
         C         C         1.0       0.4739063641168529  0.41610328706662575           0.43063812751546854          1.0000   
         C         C         1.0       0.46463717136347277           0.40116073213373854          0.43840942550089884          1.0000   
         C         C         1.0       0.4472050713857055  0.40110036442085456           0.4228598912990799 1.0000   
         C         C         1.0       0.4396836623336624  0.4159182910559925  0.4065034205018033 1.0000   
         C         C         1.0       0.44902936195524074           0.4313908558757791 0.39707336243413843          1.0000   
         H         H         1.0       0.43984448197004067           0.36168787883634007          0.13724504565324416          1.0000   
         H         H         1.0       0.43130495475856967           0.4154359060899112 0.11682451379815334          1.0000   
         H         H         1.0       0.40591998981046534           0.40911025960411457          0.06582099399500407          1.0000   
         H         H         1.0       0.41625674466607765           0.35527361658459633          0.07841903576896157          1.0000   
         H         H         1.0       0.46798966115275076           0.42195451568485015          0.11527196907218053          1.0000   
         H         H         1.0       0.4930180406139007  0.4226595694427899  0.07207938688674864          1.0000   
         H         H         1.0       0.49357996868109    0.36811368784693205           0.06872653718972344          1.0000   
         H         H         1.0       0.47093484741065184           0.3668056867790148 0.13899988590311754          1.0000   
         H         H         1.0       0.4191628799040926  0.40597503888674685           0.22471677544316784          1.0000   
         H         H         1.0       0.41594741980552113           0.4272716475875535 0.3009671520805843 1.0000   
         H         H         1.0       0.46843615925920157           0.440800337098539  0.2884889574906489 1.0000   
         H         H         1.0       0.4732217978139137  0.4190907981385515  0.22560670616727696          1.0000   
         H         H         1.0       0.4068416609494103  0.45553045354422617           0.5255374675262777 1.0000   
         H         H         1.0       0.43351807009644266           0.4484844619049983 0.4709034409711585 1.0000   
         H         H         1.0       0.40569664330552574           0.4547848020235012 0.31704159606615445          1.0000   
         H         H         1.0       0.382846814460967   0.46091159041015106           0.3622379129595372 1.0000   
         H         H         1.0       0.4334894964917589  0.47051639267126216           0.27511982167420956          1.0000   
         H         H         1.0       0.44613499849401356           0.4987143734870781 0.2624634809100485 1.0000   
         H         H         1.0       0.47701743904443483           0.49124078439274876          0.40695426452551153          1.0000   
         H         H         1.0       0.4631742587092873  0.4673139668387729  0.4309006632204278 1.0000   
         H         H         1.0       0.47474936113004534           0.44244615164483636          0.4074986265212153 1.0000   
         H         H         1.0       0.4876203901041419  0.41606069231392695           0.43979201287204733          1.0000   
         H         H         1.0       0.4387440184869088  0.389212394869935   0.4288902915812196 1.0000   
         H         H         1.0       0.42609412905251765           0.4146408455805721 0.3926524605849989 1.0000   
         C         C         1.0       0.47900407902380304           0.350172188735062  0.8090370775044925 1.0000   
         C         C         1.0       0.4841765208235859  0.36258543071294563           0.7724843436103204 1.0000   
         C         C         1.0       0.47236832440623777           0.37321232167262447          0.747005570183034  1.0000   
         C         C         1.0       0.4552795694101783  0.37238024464445807           0.7633700569345505 1.0000   
         C         C         1.0       0.4506373382762604  0.3624066244796889  0.8108054579187721 1.0000   
         C         C         1.0       0.46229405150132497           0.3499874112925419 0.8297489680732838 1.0000   
         H         H         1.0       0.4973101189245828  0.36375210268364006           0.7629708929434538 1.0000   
         H         H         1.0       0.47741027980422396           0.3821810871563242 0.7132467708324556 1.0000   
         H         H         1.0       0.4378074811010124  0.3621905865853877  0.8293734173972276 1.0000   
         H         H         1.0       0.45680264735421083           0.34131608946372965          0.8614866058480058 1.0000   
         C         C         1.0       0.41811011411492316           0.3576343952725624 0.7289259107755542 1.0000   
         C         C         1.0       0.42290814462747983           0.3742825355387652 0.7152563162795077 1.0000   
         C         C         1.0       0.409634462036729   0.384747385632582   0.6950509008110272 1.0000   
         C         C         1.0       0.39251436364555026           0.38030686963087834          0.7089629564470665 1.0000   
         C         C         1.0       0.3878021810461819  0.36493917449027885           0.7331978404746038 1.0000   
         C         C         1.0       0.40099836553686563           0.35333222490726746          0.7360750734305187 1.0000   
         C         C         1.0       0.44191935961955703           0.38258179628447087          0.7226788248018643 1.0000   
         C         C         1.0       0.44746211775490397           0.3828910195606165 0.6553956828903693 1.0000   
         C         C         1.0       0.44919043669731734           0.39758799852162413          0.6228022880921762 1.0000   
         C         C         1.0       0.4604478922666127  0.39654830819802567           0.5761500618217092 1.0000   
         C         C         1.0       0.468720494139357   0.38197115525472314           0.5603655549571794 1.0000   
         C         C         1.0       0.46538906532588087           0.3672370658190913 0.5907894319312248 1.0000   
         C         C         1.0       0.45324904777446234           0.366822961786817  0.6341574512144872 1.0000   
         C         C         1.0       0.4292415390223026  0.4023442105938094  0.8013078297637571 1.0000   
         C         C         1.0       0.4299057108059571  0.41554596760400664           0.8398637623053764 1.0000   
         C         C         1.0       0.44254702301124144           0.4283280868993634 0.836001510053506  1.0000   
         C         C         1.0       0.45228943315904063           0.4272469123177283 0.7874837149523842 1.0000   
         C         C         1.0       0.4519228625466937  0.41343538120934953           0.7501303785798878 1.0000   
         C         C         1.0       0.4410604747064792  0.40064089679163717           0.7570414577467156 1.0000   
         C         C         1.0       0.44609292566453995           0.4405152316203086 0.8904317798862058 1.0000   
         C         C         1.0       0.40085998341152174           0.44402953429107134          0.002606487267420965         1.0000   
         C         C         1.0       0.41681877545897583           0.44338505513791027          0.026687949364235797         1.0000   
         C         C         1.0       0.4311056084910991  0.44335433976604616           0.9930967499982059 1.0000   
         C         C         1.0       0.42999222822555583           0.44444978739903307          0.9329286518940315 1.0000   
         C         C         1.0       0.41407693842603427           0.44702943933600175          0.9093001686959805 1.0000   
         C         C         1.0       0.3993554589364926  0.44527484892946867           0.9443774787888647 1.0000   
         C         C         1.0       0.45108063440654683           0.4599615591921146 0.8760524782826661 1.0000   
         C         C         1.0       0.4440436040188619  0.46789411024946975           0.830167826850108  1.0000   
         C         C         1.0       0.44860709315352426           0.4837197198113248 0.810755859034922  1.0000   
         C         C         1.0       0.4623527481356782  0.4920671136594581  0.838480492350728  1.0000   
         C         C         1.0       0.4693026110819401  0.48472401826240386           0.8881364403289274 1.0000   
         C         C         1.0       0.4605837254586582  0.47050719019677584           0.909319433987106  1.0000   
         C         C         1.0       0.4776101704183837  0.43188383727711316           0.911460866509378  1.0000   
         C         C         1.0       0.48998437260796834           0.4193437873310657 0.9236434125955902 1.0000   
         C         C         1.0       0.4849248041169564  0.4033176297028126  0.9444556286532144 1.0000   
         C         C         1.0       0.46758108177239066           0.4007539429783455 0.9539052670555277 1.0000   
         C         C         1.0       0.4557814488385584  0.4136140300083507  0.9463558851366658 1.0000   
         C         C         1.0       0.46035433854765345           0.4288350909974997 0.9200148962486319 1.0000   
         H         H         1.0       0.4279342016253252  0.34729573498481603           0.736432105628107  1.0000   
         H         H         1.0       0.4109820086380434  0.3981660223198363  0.6885159664933342 1.0000   
         H         H         1.0       0.3826028482108316  0.39024174557561014           0.7089382799610229 1.0000   
         H         H         1.0       0.3969693988483762  0.3393775688197405  0.7455727644248196 1.0000   
         H         H         1.0       0.4443202091058076  0.40979479959426796           0.640632280492174  1.0000   
         H         H         1.0       0.4638850740087509  0.40829508683141363           0.5537650019459324 1.0000   
         H         H         1.0       0.47303777107075934           0.3561880642452332 0.5798271334147712 1.0000   
         H         H         1.0       0.4518307179145776  0.3557768419527545  0.6594253609806866 1.0000   
         H         H         1.0       0.4215689245319161  0.3919822477808969  0.8122521074847985 1.0000   
         H         H         1.0       0.4217189427071414  0.41389479926108774           0.8784209077748351 1.0000   
         H         H         1.0       0.4611026135612248  0.43801749646262367           0.7792493046755692 1.0000   
         H         H         1.0       0.4618056825060016  0.41274301618184234           0.7163363589725827 1.0000   
         H         H         1.0       0.4165708326438529  0.44437604140527004           0.07489488244017939          1.0000   
         H         H         1.0       0.4428168135182527  0.4415180900743869  0.01388971863693822          1.0000   
         H         H         1.0       0.41353263119779166           0.44880943619835745          0.8636345015831222 1.0000   
         H         H         1.0       0.38616225238194635           0.44517731817506695          0.926963448766609  1.0000   
         H         H         1.0       0.4349140858681307  0.461147346169641   0.8032225707923544 1.0000   
         H         H         1.0       0.4431656828142495  0.4885638440520665  0.7710354090061389 1.0000   
         H         H         1.0       0.48051742832385064           0.48963875002374335          0.9118023972683083 1.0000   
         H         H         1.0       0.4654079061168271  0.46637161520060366           0.9503774719993017 1.0000   
         H         H         1.0       0.4827652298136508  0.4419805465482638  0.8864029008042561 1.0000   
         H         H         1.0       0.5034362678456339  0.42306570575348496           0.9082477340378322 1.0000   
         H         H         1.0       0.46350538884661907           0.3882213021124406 0.9674425116696742 1.0000   
         H         H         1.0       0.442415644873368   0.4109546187043712  0.9523934500871074 1.0000   
         C         C         1.0       0.4646757514697557  0.9749860239065439  0.3959047341163297 1.0000   
         C         C         1.0       0.47008431644483845           0.9697032288438956 0.342369740517563  1.0000   
         C         C         1.0       0.45830778543060513           0.9718520194125996 0.29879967847887656          1.0000   
         C         C         1.0       0.44141642266418213           0.9776142683400878 0.30862581839266856          1.0000   
         C         C         1.0       0.43798947422309176           0.9836592437825361 0.36330133678880155          1.0000   
         C         C         1.0       0.44913702428574903           0.9822693111156771 0.40723453884473915          1.0000   
         H         H         1.0       0.482872244083943   0.9660861993168623  0.3336034859268037 1.0000   
         H         H         1.0       0.4612971501324136  0.9686066840416971  0.2537772766789258 1.0000   
         H         H         1.0       0.42603563224033936           0.989424540568632  0.374569173704361  1.0000   
         H         H         1.0       0.4446807651827027  0.986783778568233   0.4491758864469183 1.0000   
         C         C         1.0       0.4025576844924113  0.9662614464171007  0.32638886126857103          1.0000   
         C         C         1.0       0.4072988485222386  0.9763980046626036  0.27850630646742025          1.0000   
         C         C         1.0       0.3945229196231102  0.9842099311373934  0.24446428832217684          1.0000   
         C         C         1.0       0.37827808199275137           0.9847068619818011 0.26275964767558846          1.0000   
         C         C         1.0       0.37319410261963276           0.9761989248752475 0.3107542788612253 1.0000   
         C         C         1.0       0.3850154035563364  0.9667466802201695  0.3419438433196672 1.0000   
         C         C         1.0       0.4267672446975255  0.9762095198123962  0.2617741008952836 1.0000   
         C         C         1.0       0.42769297001371587           0.9582366581708741 0.2234111308246768 1.0000   
         C         C         1.0       0.42151906136041434           0.9569556146685013 0.16739390200803733          1.0000   
         C         C         1.0       0.42384679272414766           0.9431410290329435 0.13286521873139573          1.0000   
         C         C         1.0       0.43032470823978336           0.9283940006559067 0.15740826248663234          1.0000   
         C         C         1.0       0.43394121219731646           0.9279671776676068 0.2164277964606906 1.0000   
         C         C         1.0       0.43209497784618756           0.9431819193172033 0.24710331691052143          1.0000   
         C         C         1.0       0.42664729371614113           0.008230927647301822         0.24522961480042046          1.0000   
         C         C         1.0       0.42917128101061774           0.022472094597400183         0.2139912684175522 1.0000   
         C         C         1.0       0.4349274926689589  0.021623646565804622         0.1578901369224403 1.0000   
         C         C         1.0       0.4414549669837866  0.006092683743225358         0.1395599974394666 1.0000   
         C         C         1.0       0.4420979479932118  0.9919661008968813  0.17419355773747797          1.0000   
         C         C         1.0       0.43244138417963435           0.9927192192958244 0.2271582468160833 1.0000   
         C         C         1.0       0.4329104542691677  0.03903223378042542           0.12186085537880913          1.0000   
         C         C         1.0       0.37605013218279815           0.039663937792830506         0.11350559498715408          1.0000   
         C         C         1.0       0.383649611249233   0.047034139722647694         0.16112606537627722          1.0000   
         C         C         1.0       0.40185160579868817           0.048894095300880513         0.16191087955022068          1.0000   
         C         C         1.0       0.41172970487549315           0.0397717249042    0.12184635984838262          1.0000   
         C         C         1.0       0.4030813210921275  0.03156500404610019           0.0789351840481507 1.0000   
         C         C         1.0       0.3860706438655276  0.032337670335025104         0.07192141218736148          1.0000   
         C         C         1.0       0.4427358505147489  0.03900437540493251           0.06112757731972551          1.0000   
         C         C         1.0       0.4583382348221777  0.030911959267933442         0.054609079390248505         1.0000   
         C         C         1.0       0.46529205731797496           0.028087173551554656         0.0012001811113622196        1.0000   
         C         C         1.0       0.45695678869192813           0.033039663328311875         0.9516711209550235 1.0000   
         C         C         1.0       0.44279603691333375           0.044089470339715886         0.9571330413517184 1.0000   
         C         C         1.0       0.43556982851384446           0.046675068223336336         0.010065077053504012         1.0000   
         C         C         1.0       0.43643429762230634           0.0720511917110267 0.1390919431590484 1.0000   
         C         C         1.0       0.4429839916910429  0.08551061202122168           0.17122764044489538          1.0000   
         C         C         1.0       0.4530152150392337  0.0837202926646754  0.21945813122785343          1.0000   
         C         C         1.0       0.45958848114907647           0.06804833248466635          0.2286466624367405 1.0000   
         C         C         1.0       0.4545714340163459  0.05406244033521812           0.19299682425586587          1.0000   
         C         C         1.0       0.44134030052314493           0.055150277995808406         0.1526762366513274 1.0000   
         H         H         1.0       0.41091930058293236           0.9582380934318601 0.35140523290904385          1.0000   
         H         H         1.0       0.39836949456452386           0.9924324075752368 0.21068980626283126          1.0000   
         H         H         1.0       0.36896336354524045           0.992891581252482  0.24254479522495426          1.0000   
         H         H         1.0       0.3810297260882519  0.9579432669990459  0.3755022934136827 1.0000   
         H         H         1.0       0.4163954382625102  0.968296788110987   0.14772642416451806          1.0000   
         H         H         1.0       0.4197196828307598  0.9430088915610942  0.08819721731769725          1.0000   
         H         H         1.0       0.4388420884659429  0.9174315228512798  0.2377558035685466 1.0000   
         H         H         1.0       0.43500365064440866           0.9434609105474837 0.29406459529043805          1.0000   
         H         H         1.0       0.4199646506940763  0.009631004946353938         0.286891548307417  1.0000   
         H         H         1.0       0.4251291627301176  0.034208502310267175         0.23249000358063268          1.0000   
         H         H         1.0       0.4452572125349607  0.005334790971877501         0.09537580616999919          1.0000   
         H         H         1.0       0.4472275393071739  0.9797820660737053  0.16062284150146433          1.0000   
         H         H         1.0       0.3758564767398594  0.05082939991016411           0.1963618832669032 1.0000   
         H         H         1.0       0.4080784204107108  0.05691271293936473           0.191174685800148  1.0000   
         H         H         1.0       0.41072390140809656           0.02617603001560176          0.046507845199803326         1.0000   
         H         H         1.0       0.379770857026817   0.023446734274473968         0.04543197709174196          1.0000   
         H         H         1.0       0.46568635514812484           0.02526757057540152          0.09070591318860832          1.0000   
         H         H         1.0       0.4754443304900883  0.018734421729235784         0.9961720106974697 1.0000   
         H         H         1.0       0.435322116267281   0.049691715747375964         0.9191880395650343 1.0000   
         H         H         1.0       0.42298609571389706           0.05263170479694024          0.007063699831198588         1.0000   
         H         H         1.0       0.42656734579738453           0.07447172718961759          0.10570669534295418          1.0000   
         H         H         1.0       0.4391378954894285  0.09830078427522815           0.1621565479216333 1.0000   
         H         H         1.0       0.47031460378138396           0.06693592468180354          0.2587756829951397 1.0000   
         H         H         1.0       0.4615173221902347  0.04254086241468391           0.20080383089441436          1.0000   
         C         C         1.0       0.44372571303052494           0.006912977778628093         0.8492919156749187 1.0000   
         C         C         1.0       0.45346911314974514           0.9921724426165668 0.8308964134114317 1.0000   
         C         C         1.0       0.44794589723428535           0.9768626119040116 0.8413596653895737 1.0000   
         C         C         1.0       0.43342094138536724           0.9745523675779936 0.8745518275801617 1.0000   
         C         C         1.0       0.4230361420757318  0.9887726186446166  0.888901454410157  1.0000   
         C         C         1.0       0.42774431314923805           0.005442315042113455         0.8730362733181768 1.0000   
         H         H         1.0       0.4663776838878557  0.9944400655661534  0.8148780809845054 1.0000   
         H         H         1.0       0.4540936033152688  0.9654843216517875  0.8197764872519655 1.0000   
         H         H         1.0       0.4091262039664853  0.9880124387673743  0.9037579667509599 1.0000   
         H         H         1.0       0.41788475470796677           0.015393753877515515         0.8846956738243043 1.0000   
         C         C         1.0       0.40954283386981616           0.9633348631706306 0.9789270933853722 1.0000   
         C         C         1.0       0.41041209861393757           0.9531684939020518 0.9299691778695381 1.0000   
         C         C         1.0       0.39740772103829136           0.9412282989898418 0.919284800525522  1.0000   
         C         C         1.0       0.38472589887392006           0.9384054004704986 0.9565905957128615 1.0000   
         C         C         1.0       0.3836368510603598  0.9489101060760755  0.0037781321192027484        1.0000   
         C         C         1.0       0.3959794797042098  0.9610193589071422  0.0161784316867839 1.0000   
         C         C         1.0       0.42544489769109306           0.9555138915895603 0.8815953959663185 1.0000   
         C         C         1.0       0.4395680553383358  0.942404867508667   0.9074785660136586 1.0000   
         C         C         1.0       0.43922183127484143           0.9250466015191798 0.8957742984508948 1.0000   
         C         C         1.0       0.45043951129898563           0.9137996959180508 0.9203876892168953 1.0000   
         C         C         1.0       0.46356623567541566           0.9200820409741264 0.9549803994772239 1.0000   
         C         C         1.0       0.46277468503360175           0.9375356109102225 0.9731151376289179 1.0000   
         C         C         1.0       0.45079519528371564           0.9484700665902305 0.9482920978256907 1.0000   
         C         C         1.0       0.4050857104742116  0.9612072681368828  0.7968302731251865 1.0000   
         C         C         1.0       0.40218539927951197           0.9631278694341726 0.7376480867559833 1.0000   
         C         C         1.0       0.4142243788224501  0.9564835119713868  0.7003293475289869 1.0000   
         C         C         1.0       0.42621431668587334           0.9447801348047254 0.7179934120508601 1.0000   
         C         C         1.0       0.4296275254288189  0.9432629821298089  0.7750878833605651 1.0000   
         C         C         1.0       0.41966082424866286           0.9516972177522948 0.816939297029554  1.0000   
         C         C         1.0       0.4141517693913272  0.9649437860173092  0.6391816201982494 1.0000   
         C         C         1.0       0.3671040094018618  0.9393582417537754  0.5641260996662809 1.0000   
         C         C         1.0       0.36735644617366925           0.9567217552522489 0.5772633440367961 1.0000   
         C         C         1.0       0.3814427630347305  0.9641165176508297  0.6027736169088699 1.0000   
         C         C         1.0       0.3962109441817266  0.9555083420868515  0.615151958948192  1.0000   
         C         C         1.0       0.3951844625039651  0.9375748458009548  0.6029860359744099 1.0000   
         C         C         1.0       0.38106192990832916           0.9295086534244583 0.5778013695261683 1.0000   
         C         C         1.0       0.42954882446727194           0.9595875672556774 0.597765596840741  1.0000   
         C         C         1.0       0.44612590701581284           0.9634800409713563 0.6143494034236076 1.0000   
         C         C         1.0       0.45940195338499734           0.9626532400842027 0.5761301682081313 1.0000   
         C         C         1.0       0.4571884080992877  0.9555452911107721  0.5225788664098077 1.0000   
         C         C         1.0       0.44084550357655167           0.9499118400145832 0.5055320223328753 1.0000   
         C         C         1.0       0.42719018678210563           0.9528895884286911 0.5414981213115282 1.0000   
         C         C         1.0       0.40912961305003975           0.9956339056891274 0.5968831467411115 1.0000   
         C         C         1.0       0.41018242924678466           0.01339390516168626          0.6010180245456647 1.0000   
         C         C         1.0       0.41856018004817774           0.021143203959796075         0.6462907508911455 1.0000   
         C         C         1.0       0.42619864083548625           0.010509538898551218         0.6857034315816691 1.0000   
         C         C         1.0       0.4246261752967805  0.9935052613985647  0.6848310092261309 1.0000   
         C         C         1.0       0.4148641159021035  0.9855755516214072  0.6397886930391766 1.0000   
         H         H         1.0       0.4192508200733906  0.9728384601977851  0.986582017067775  1.0000   
         H         H         1.0       0.3980650939658778  0.9334954465639326  0.8814859804087308 1.0000   
         H         H         1.0       0.374993401493393   0.9293643266366773  0.9464951707418843 1.0000   
         H         H         1.0       0.3947595621926787  0.9709762994667941  0.051817987795297116         1.0000   
         H         H         1.0       0.4298490007786991  0.917854105192836   0.8694311980133359 1.0000   
         H         H         1.0       0.4501064685197196  0.9000646244179966  0.905807248164325  1.0000   
         H         H         1.0       0.47261669889241825           0.9419023894158243 0.001303655424699901         1.0000   
         H         H         1.0       0.4510359022112016  0.9621788220445257  0.9633878487516877 1.0000   
         H         H         1.0       0.3962098756681214  0.9678076466097467  0.8247177317792251 1.0000   
         H         H         1.0       0.3920489198655607  0.9712142799802794  0.7254034486164589 1.0000   
         H         H         1.0       0.43640492270529097           0.9390203316219186 0.6920309616428226 1.0000   
         H         H         1.0       0.4425960381763956  0.940090608622719   0.784910181635213  1.0000   
         H         H         1.0       0.35582067984441873           0.9635282516868052 0.5699305609884667 1.0000   
         H         H         1.0       0.3822610646649215  0.9776090499070776  0.6102559688780279 1.0000   
         H         H         1.0       0.4062101094334171  0.9297942400939849  0.607157229413665  1.0000   
         H         H         1.0       0.3814125103902461  0.9155863974802716  0.5652595407243824 1.0000   
         H         H         1.0       0.4477153042491665  0.9695222624628996  0.6546977234813157 1.0000   
         H         H         1.0       0.4726191577959686  0.9662221526064247  0.584534561994432  1.0000   
         H         H         1.0       0.4387269396829716  0.9449926705180509  0.4607665002847963 1.0000   
         H         H         1.0       0.4153604605149069  0.9510283981852269  0.5198219925809339 1.0000   
         H         H         1.0       0.4047805711979102  0.9902417825528285  0.5566061335156751 1.0000   
         H         H         1.0       0.4064950141146505  0.02062176753748224           0.5634200680221496 1.0000   
         H         H         1.0       0.43482755575625376           0.015303019692461062         0.724654701182922  1.0000   
         H         H         1.0       0.4301539021154591  0.986910031615701   0.7228431879195752 1.0000   
         C         C         1.0       0.4243473591678329  0.8893392558397089  0.1900254420436349 1.0000   
         C         C         1.0       0.4390954223148083  0.8814058201358047  0.20258306377735152          1.0000   
         C         C         1.0       0.44104244699435435           0.8712289273641853 0.25095058816407273          1.0000   
         C         C         1.0       0.4274259236996933  0.8700047042574272  0.2890801277687654 1.0000   
         C         C         1.0       0.4122042685159849  0.878354819757476   0.27663919006280147          1.0000   
         C         C         1.0       0.4104748388601488  0.8876683259454866  0.2271832368623113 1.0000   
         H         H         1.0       0.4502789340304744  0.8832533301007914  0.1742589367231903 1.0000   
         H         H         1.0       0.45348935908405363           0.8642902679791428 0.2563838799799394 1.0000   
         H         H         1.0       0.40346294095139285           0.8802897033844141 0.3102658595853426 1.0000   
         H         H         1.0       0.3988285301177321  0.8960367106575469  0.22062878066421002          1.0000   
         C         C         1.0       0.4023513583708316  0.8509678867000035  0.41886918752060703          1.0000   
         C         C         1.0       0.40734790567942436           0.8507205991271711 0.3610886375439669 1.0000   
         C         C         1.0       0.3953678489439186  0.8447445481631422  0.32207173712822085          1.0000   
         C         C         1.0       0.37838888416511    0.8415243675322303  0.335761240769487  1.0000   
         C         C         1.0       0.37334904727439044           0.8421010130546084 0.393183329388243  1.0000   
         C         C         1.0       0.38563368628715755           0.8460842711392984 0.4326887811032378 1.0000   
         C         C         1.0       0.42704261500513246           0.8565916816199663 0.34017900898657993          1.0000   
         C         C         1.0       0.43767795290315936           0.8681128559895046 0.3839743488751525 1.0000   
         C         C         1.0       0.4546970360597954  0.8645773668081009  0.3979333645729661 1.0000   
         C         C         1.0       0.46394233329264234           0.8740264258930174 0.43876891272225077          1.0000   
         C         C         1.0       0.4562842503171981  0.887999584640937   0.46302653029966256          1.0000   
         C         C         1.0       0.4397614228919474  0.8929192344919366  0.4447062936120285 1.0000   
         C         C         1.0       0.43035704968305116           0.8826520775679529 0.41046379298207647          1.0000   
         C         C         1.0       0.4347369783733016  0.8311509184818718  0.2700680982767728 1.0000   
         C         C         1.0       0.4387023431588307  0.8139297887829781  0.2620427393840401 1.0000   
         C         C         1.0       0.4448903498521362  0.8034544587286556  0.3058528013698686 1.0000   
         C         C         1.0       0.4482590430935095  0.811236760377807   0.35778033112749136          1.0000   
         C         C         1.0       0.4421968268887209  0.8281900192835148  0.36726690569950216          1.0000   
         C         C         1.0       0.4354256110504693  0.8382914353256828  0.32410652432586906          1.0000   
         C         C         1.0       0.44332645297930257           0.7822851864162333 0.30253457728041716          1.0000   
         C         C         1.0       0.38939160765325603           0.7819491854214103 0.35337382053181143          1.0000   
         C         C         1.0       0.39398196098948585           0.7800987568348853 0.2962190229764458 1.0000   
         C         C         1.0       0.4108990922532585  0.7819483276166336  0.28322030356983025          1.0000   
         C         C         1.0       0.42393706089388344           0.7800413382846136 0.3217222457848287 1.0000   
         C         C         1.0       0.4185264538698436  0.780161668830334   0.38003607830333597          1.0000   
         C         C         1.0       0.4019223805323058  0.782284512033571   0.39579659699555997          1.0000   
         C         C         1.0       0.45777160793128824           0.7723902090510179 0.3420170962247784 1.0000   
         C         C         1.0       0.4751098788519844  0.7763440291726009  0.34342068493233197          1.0000   
         C         C         1.0       0.48657804018590645           0.7671146779310786 0.3768831084256115 1.0000   
         C         C         1.0       0.4810838136672781  0.7519154735408999  0.4013782756429176 1.0000   
         C         C         1.0       0.4645348992128107  0.7469310489808354  0.3977059311625738 1.0000   
         C         C         1.0       0.45291320690922066           0.7568025482812445 0.3682129327947779 1.0000   
         C         C         1.0       0.4402959663459844  0.7614484764961382  0.21465303386597154          1.0000   
         C         C         1.0       0.44449212528546483           0.7563276173790742 0.15900912583969815          1.0000   
         C         C         1.0       0.45683904919699225           0.7647872648477915 0.12490623511930454          1.0000   
         C         C         1.0       0.4649606375121585  0.7783057515981797  0.15087968231848   1.0000   
         C         C         1.0       0.4612277419806044  0.7837423761318424  0.206474784098988  1.0000   
         C         C         1.0       0.44858480271099394           0.7756020014369123 0.23969041812200745          1.0000   
         H         H         1.0       0.41204930585751154           0.8554167861976311 0.4503073212785884 1.0000   
         H         H         1.0       0.39841163760977133           0.8456333334478029 0.27614827409955567          1.0000   
         H         H         1.0       0.3694626227458761  0.8387559745871856  0.3020617708643635 1.0000   
         H         H         1.0       0.38189909169104885           0.845681094508517  0.4795749731120281 1.0000   
         H         H         1.0       0.46125568310716    0.8530274080353036  0.38281279923976635          1.0000   
         H         H         1.0       0.47681246483631756           0.8713952364571025 0.4456146187709959 1.0000   
         H         H         1.0       0.4354605127447751  0.9037142356071197  0.4673537041435029 1.0000   
         H         H         1.0       0.41634265483863186           0.8862763771354952 0.40669879091381783          1.0000   
         H         H         1.0       0.4288031416228173  0.836921314504453   0.23326573463219114          1.0000   
         H         H         1.0       0.4386097446422776  0.8109586583566083  0.2175368548660316 1.0000   
         H         H         1.0       0.45141872513580505           0.8038491795090605 0.3977889436600927 1.0000   
         H         H         1.0       0.4433180676880073  0.8305557359630591  0.41236044382368464          1.0000   
         H         H         1.0       0.3841241158009664  0.783054337149008   0.2623208462461986 1.0000   
         H         H         1.0       0.4129019729350514  0.7841733517487599  0.23778807699958687          1.0000   
         H         H         1.0       0.42865271972211016           0.7801122514495182 0.41151007409615975          1.0000   
         H         H         1.0       0.3990663655046565  0.7846189198420997  0.44227682731894463          1.0000   
         H         H         1.0       0.47954755361114343           0.7873223160639167 0.31780347537473125          1.0000   
         H         H         1.0       0.4997438172750559  0.7713858940368472  0.38105184757690036          1.0000   
         H         H         1.0       0.45884177442242535           0.7368315691257294 0.42538422840575996          1.0000   
         H         H         1.0       0.440817743495438   0.7528547397482918  0.3678638598766214 1.0000   
         H         H         1.0       0.43119467734089023           0.7531513714556858 0.23673248429002594          1.0000   
         H         H         1.0       0.43630847580878446           0.7466353766254653 0.14033795339538135          1.0000   
         H         H         1.0       0.47358378715748933           0.7850692752566298 0.1221882333125134 1.0000   
         H         H         1.0       0.46854421506653726           0.7951886040704744 0.22272042396252004          1.0000   
         C         C         1.0       0.4645642064421395  0.8759386969558787  0.977544725182042  1.0000   
         C         C         1.0       0.4760660460108851  0.8634861977099325  0.9608873138242014 1.0000   
         C         C         1.0       0.46946283677859746           0.8490474814014963 0.938355528988072  1.0000   
         C         C         1.0       0.4523138012341183  0.8458513885479829  0.9332357731351383 1.0000   
         C         C         1.0       0.4403318404772516  0.8580576492462506  0.9518293574096794 1.0000   
         C         C         1.0       0.44685203761454556           0.8736230436434222 0.9746598841891173 1.0000   
         H         H         1.0       0.4895329658896019  0.8665350149215979  0.9581801030531525 1.0000   
         H         H         1.0       0.4787109791186603  0.8417196819280927  0.9132847054406976 1.0000   
         H         H         1.0       0.4269291847589025  0.8566045782464731  0.9419245995794129 1.0000   
         H         H         1.0       0.43876701293146636           0.8834692316139182 0.9838460804234646 1.0000   
         C         C         1.0       0.4200437247781149  0.826617689722462   0.9942994846024835 1.0000   
         C         C         1.0       0.42555491397702194           0.8228039957178533 0.9383396155192185 1.0000   
         C         C         1.0       0.4150039509520128  0.8134382482575884  0.9048568658816947 1.0000   
         C         C         1.0       0.39907190556061173           0.8071703393485028 0.9239317233923628 1.0000   
         C         C         1.0       0.3944599538661284  0.8112968074266068  0.9782075872266283 1.0000   
         C         C         1.0       0.4047750058693958  0.8216486325427305  0.013230259450188075         1.0000   
         C         C         1.0       0.44434364844541446           0.8278020372535784 0.9164592869141547 1.0000   
         C         C         1.0       0.4558947878657101  0.8121701683531827  0.9368168260497265 1.0000   
         C         C         1.0       0.45596217953027046           0.7961622175853442 0.9100354858625782 1.0000   
         C         C         1.0       0.4635209247981587  0.7816865045752898  0.9352704071701121 1.0000   
         C         C         1.0       0.4694891483567281  0.7832331851012686  0.9909742530171463 1.0000   
         C         C         1.0       0.4711514506514119  0.7990228870722013  0.013264352840564486         1.0000   
         C         C         1.0       0.4627268330511803  0.8127961125433376  0.9922128294153572 1.0000   
         C         C         1.0       0.4307949890785432  0.84120140212746    0.8222666493245272 1.0000   
         C         C         1.0       0.43126654755624044           0.8436153588814325 0.7624510238615918 1.0000   
         C         C         1.0       0.44317335374244554           0.8359519462914511 0.7294380612909386 1.0000   
         C         C         1.0       0.4578980129007346  0.8302035158870122  0.7576314752866837 1.0000   
         C         C         1.0       0.45848979202806434           0.8264025470598495 0.8148438700517698 1.0000   
         C         C         1.0       0.4442099791011     0.8310925940369647  0.8486769106211358 1.0000   
         C         C         1.0       0.4400627674292664  0.832994105870659   0.6624109205931409 1.0000   
         C         C         1.0       0.3888064822068729  0.810700032965014   0.6199420000805956 1.0000   
         C         C         1.0       0.39817936547649097           0.8187684798853123 0.5788203758881266 1.0000   
         C         C         1.0       0.4137019416410694  0.8261784519011127  0.5903382669281351 1.0000   
         C         C         1.0       0.42121620589563    0.82571830778402    0.6462201253945493 1.0000   
         C         C         1.0       0.4128962227193861  0.8150599809937425  0.6852869313009797 1.0000   
         C         C         1.0       0.39598991897225966           0.8095179702312654 0.6735914863771386 1.0000   
         C         C         1.0       0.45127705606618984           0.8176316303344585 0.6339336322293898 1.0000   
         C         C         1.0       0.45127190613285045           0.8014568673353039 0.6597505565210965 1.0000   
         C         C         1.0       0.4600055655946802  0.787828354969944   0.6364119968729969 1.0000   
         C         C         1.0       0.47017755818386303           0.7896079971133642 0.586285527399809  1.0000   
         C         C         1.0       0.4716236631098913  0.8058029727929886  0.5624684274643861 1.0000   
         C         C         1.0       0.46198112032522126           0.8190935212861059 0.5842013534156537 1.0000   
         C         C         1.0       0.46166785479089234           0.857014472852434  0.6375818864194212 1.0000   
         C         C         1.0       0.4662925698787128  0.8730396017716907  0.619528044474728  1.0000   
         C         C         1.0       0.45413939237465734           0.8835691383751141 0.5953498242776212 1.0000   
         C         C         1.0       0.43696271552815075           0.8787106430686678 0.5964987439894287 1.0000   
         C         C         1.0       0.4324990623595093  0.8632913832473594  0.6210250347087435 1.0000   
         C         C         1.0       0.44476540209030374           0.8516166010528109 0.6386987512891489 1.0000   
         H         H         1.0       0.429506152740466   0.8316207622533213  0.025751993485026103         1.0000   
         H         H         1.0       0.41870344189221875           0.8097192984766245 0.8593183459859699 1.0000   
         H         H         1.0       0.39186929495276884           0.7997353277129334 0.8959470630905204 1.0000   
         H         H         1.0       0.40151835667364394           0.8246436116531428 0.056636456267186164         1.0000   
         H         H         1.0       0.44936731600482704           0.7947344093244155 0.8706235586685338 1.0000   
         H         H         1.0       0.461222360631805   0.7691381036182278  0.915172153084246  1.0000   
         H         H         1.0       0.47729143792363177           0.7999887261744476 0.05331358249861906          1.0000   
         H         H         1.0       0.46268462063668525           0.8240524204084966 0.019878401688885106         1.0000   
         H         H         1.0       0.41985142692494487           0.8461821554759299 0.8461847820566596 1.0000   
         H         H         1.0       0.41894574920346067           0.8468909588159191 0.7448155609472509 1.0000   
         H         H         1.0       0.4684001392552953  0.8270108258890402  0.7313763709586034 1.0000   
         H         H         1.0       0.47002415661358304           0.82168328691523   0.8310941235084037 1.0000   
         H         H         1.0       0.3935845019296591  0.8207037204465565  0.5342301277904073 1.0000   
         H         H         1.0       0.4208356435483425  0.8307756934455954  0.5563453948249437 1.0000   
         H         H         1.0       0.4176273557518567  0.8112332965099586  0.7302305221999003 1.0000   
         H         H         1.0       0.3899885131682784  0.803125959085594   0.706427593155581  1.0000   
         H         H         1.0       0.4446640904304347  0.7996867972196001  0.6991348832891731 1.0000   
         H         H         1.0       0.4563150068262014  0.7757929941608069  0.6548300135271273 1.0000   
         H         H         1.0       0.4793742961353935  0.8083788475977585  0.5229854908776966 1.0000   
         H         H         1.0       0.4624992013802013  0.8316381845802315  0.5627135893426304 1.0000   
         H         H         1.0       0.47219226744277865           0.8484281491407747 0.6520862579884535 1.0000   
         H         H         1.0       0.47998052306237743           0.8767760703693315 0.6213511985433245 1.0000   
         H         H         1.0       0.4257945483858746  0.8840857207389385  0.5738124845026198 1.0000   
         H         H         1.0       0.41912362669355147           0.8605278881931364 0.6218240075606196 1.0000   
         C         C         1.0       0.243640413220364   0.9476767222301845  0.9578052049129538 1.0000   
         C         C         1.0       0.23825007974654758           0.9455855846335851 0.015212368684109911         1.0000   
         C         C         1.0       0.25025172522153455           0.9469737093049632 0.060286698363578806         1.0000   
         C         C         1.0       0.26747030481593714           0.9495830782683347 0.0480367332183782 1.0000   
         C         C         1.0       0.272203648997575   0.9507758317948679  0.9912276226006044 1.0000   
         C         C         1.0       0.2603719526861378  0.9500266993902549  0.9470174573354702 1.0000   
         H         H         1.0       0.22638011071109285           0.9402399386529388 0.027460432454953665         1.0000   
         H         H         1.0       0.24616249569823218           0.9445971402841356 0.10509981699128801          1.0000   
         H         H         1.0       0.2855334350065101  0.9534151749496579  0.9775507056940572 1.0000   
         H         H         1.0       0.2640589222952214  0.9523979752538716  0.9041768542298662 1.0000   
         C         C         1.0       0.30855729319092995           0.9418410359829285 0.0441609505761511 1.0000   
         C         C         1.0       0.3008762893054412  0.9547360715624077  0.07790853609301607          1.0000   
         C         C         1.0       0.3125153189056959  0.9676511339483357  0.09979590792905002          1.0000   
         C         C         1.0       0.32901349769340305           0.9685404111831706 0.08278556573575546          1.0000   
         C         C         1.0       0.3357518339146015  0.9565504025280106  0.04565660369368252          1.0000   
         C         C         1.0       0.3259714912543999  0.9425105534684065  0.028210349387285616         1.0000   
         C         C         1.0       0.2811499687499666  0.9514302762973416  0.09944161379106875          1.0000   
         C         C         1.0       0.2818829607089966  0.935056913284584   0.13662213412945312          1.0000   
         C         C         1.0       0.29008748622531644           0.9350773427209998 0.19106709640671182          1.0000   
         C         C         1.0       0.2950427542645258  0.9190043574326149  0.2167536027454895 1.0000   
         C         C         1.0       0.2915224347874462  0.9044405443545935  0.18808856895443116          1.0000   
         C         C         1.0       0.28215761133245876           0.904412166998974  0.13771423528032511          1.0000   
         C         C         1.0       0.27783728384312106           0.9195823742087976 0.11148041247520624          1.0000   
         C         C         1.0       0.27211833829074183           0.9829201400740882 0.08845432674239673          1.0000   
         C         C         1.0       0.27162346254134073           0.9999066005770957 0.10716712690168449          1.0000   
         C         C         1.0       0.27117513799516163           0.0033113067912089456        0.1655528894679476 1.0000   
         C         C         1.0       0.2708890512335492  0.9895494019944341  0.20481836900005898          1.0000   
         C         C         1.0       0.27217373319984295           0.9728658030089924 0.18401855078213153          1.0000   
         C         C         1.0       0.27412005971317926           0.9693075928448774 0.12572310770382167          1.0000   
         C         C         1.0       0.27567585320065585           0.02241033292441763          0.17868393092175666          1.0000   
         C         C         1.0       0.33158354398764905           0.0191788773599324 0.14664408878550103          1.0000   
         C         C         1.0       0.32092098854007145           0.023118632308354314         0.10206013404193004          1.0000   
         C         C         1.0       0.303701004369924   0.02525937152211455           0.11322267188885968          1.0000   
         C         C         1.0       0.29660866738880126           0.02239029067026821          0.16760358355601115          1.0000   
         C         C         1.0       0.30774667264802325           0.01666309320132031          0.20969388844052836          1.0000   
         C         C         1.0       0.3253579472751125  0.015144448731838178         0.20007691686504314          1.0000   
         C         C         1.0       0.2702196191188066  0.02979496647892299           0.24182398946796108          1.0000   
         C         C         1.0       0.2551614596258437  0.023226971273350827         0.26908692241850396          1.0000   
         C         C         1.0       0.24880150141685248           0.031255556740687584         0.3170398856736986 1.0000   
         C         C         1.0       0.2563348138246588  0.046471869950374556         0.335262123821963  1.0000   
         C         C         1.0       0.27113017041904186           0.052604417769181566         0.3080010196624625 1.0000   
         C         C         1.0       0.2783550588678576  0.043691658200890604         0.2639362592849644 1.0000   
         C         C         1.0       0.2717230500898284  0.051906399457942065         0.13138135849725113          1.0000   
         C         C         1.0       0.26220170506030205           0.06603094963892486          0.11640093740249313          1.0000   
         C         C         1.0       0.24545342476793722           0.06347747153098204          0.0949756616514128 1.0000   
         C         C         1.0       0.2379435608066541  0.04771429384909798           0.10249644540450319          1.0000   
         C         C         1.0       0.247985426335215   0.03461452573078927           0.12596155782502985          1.0000   
         C         C         1.0       0.26479571382745254           0.03681159510377019          0.1433225656265203 1.0000   
         H         H         1.0       0.3009908519691118  0.9318126310331744  0.02807823107861207          1.0000   
         H         H         1.0       0.30750062226237357           0.9791101947333346 0.12160603754100574          1.0000   
         H         H         1.0       0.3367623555038101  0.9791237023217231  0.09773568698260271          1.0000   
         H         H         1.0       0.33140288073663754           0.9316276292120369 0.001738723735062786         1.0000   
         H         H         1.0       0.29382573198212475           0.9466526210950746 0.21212132896138375          1.0000   
         H         H         1.0       0.30168851773420396           0.918380730039035  0.25608743421476515          1.0000   
         H         H         1.0       0.28018763315928563           0.8918821325066765 0.11379067696235534          1.0000   
         H         H         1.0       0.27508985254066143           0.9190300125232577 0.06666136455440941          1.0000   
         H         H         1.0       0.27272054720534056           0.9823765820101693 0.043323246224934  1.0000   
         H         H         1.0       0.27186762271701925           0.01001678759854907          0.07383154273205372          1.0000   
         H         H         1.0       0.27040706263521497           0.9905005698802012 0.24963181385786606          1.0000   
         H         H         1.0       0.27109847290173994           0.9624682121212782 0.21424518368762263          1.0000   
         H         H         1.0       0.32672722718288705           0.026173981967502646         0.06408915737276931          1.0000   
         H         H         1.0       0.29679067002587034           0.029273751193056086         0.07735196607855686          1.0000   
         H         H         1.0       0.3019564734447253  0.012952141323038235         0.24949590676474492          1.0000   
         H         H         1.0       0.3351036448423322  0.010452620978218974         0.23171382935080584          1.0000   
         H         H         1.0       0.2479622870560307  0.013759435168404277         0.24504060734593291          1.0000   
         H         H         1.0       0.2371226410694827  0.026577088147723416         0.33895166925279263          1.0000   
         H         H         1.0       0.2765300066232524  0.0643657175988881  0.3226799251071639 1.0000   
         H         H         1.0       0.2884626145342428  0.049441376338204   0.24439231731244213          1.0000   
         H         H         1.0       0.28533172691810066           0.053887923747262256         0.14523282416644548          1.0000   
         H         H         1.0       0.26844203723390586           0.07828476540848772          0.11698486660651863          1.0000   
         H         H         1.0       0.22421650819390387           0.04425919489031127          0.09331597460107298          1.0000   
         H         H         1.0       0.24316638492307963           0.022177476769470683         0.12742583154648016          1.0000   
         C         C         1.0       0.2651312788288622  0.04228702020102104           0.462426642082914  1.0000   
         C         C         1.0       0.2541919337745523  0.028850937166531088         0.46762462372267893          1.0000   
         C         C         1.0       0.2605790132080652  0.012342921282628705         0.47919176253879264          1.0000   
         C         C         1.0       0.27774197479793533           0.009323174318002891         0.48119434564694963          1.0000   
         C         C         1.0       0.28822788520479675           0.023860765351259472         0.4856419152155258 1.0000   
         C         C         1.0       0.282047050687139   0.0401046836169876  0.47106009822556755          1.0000   
         H         H         1.0       0.239962772888912   0.030369119915484077         0.46080177192721694          1.0000   
         H         H         1.0       0.25144466580247105           0.0025927332572215356        0.481472862152089  1.0000   
         H         H         1.0       0.30144383452144724           0.022490224076429977         0.49128450851660044          1.0000   
         H         H         1.0       0.2903676948714673  0.05122218027589476           0.4647648095004456 1.0000   
         C         C         1.0       0.30481862838723467           0.9963871187386264 0.39838039222288335          1.0000   
         C         C         1.0       0.30299310612579494           0.9893168402041156 0.45391258305980564          1.0000   
         C         C         1.0       0.31649589512688686           0.9809417480417847 0.477464812600695  1.0000   
         C         C         1.0       0.33212760646610445           0.9824740037820959 0.45009769661873134          1.0000   
         C         C         1.0       0.3337670435378156  0.9903101033811597  0.4004592348864221 1.0000   
         C         C         1.0       0.3201257892499143  0.9962870516298298  0.3709190673319289 1.0000   
         C         C         1.0       0.28517911348435465           0.9905952469339863 0.4862175164648631 1.0000   
         C         C         1.0       0.274103988173917   0.9764689424647949  0.45198100887935416          1.0000   
         C         C         1.0       0.2774092874544183  0.9593201937085464  0.4677828193287936 1.0000   
         C         C         1.0       0.2670205876724386  0.9464347098191531  0.44948130648795315          1.0000   
         C         C         1.0       0.25432278355555127           0.9498351642642927 0.40903455802185895          1.0000   
         C         C         1.0       0.2527167086854185  0.9661868550436844  0.3845939469473646 1.0000   
         C         C         1.0       0.26412197729964115           0.9789783256853016 0.4030898891355463 1.0000   
         C         C         1.0       0.2976625428387893  0.994020807120454   0.5884936013587322 1.0000   
         C         C         1.0       0.2987126029228822  0.9872996363463188  0.6436032899337175 1.0000   
         C         C         1.0       0.28656996032039006           0.9756961473161596 0.6653059240012393 1.0000   
         C         C         1.0       0.272420206549867   0.9731578277886355  0.628969676078419  1.0000   
         C         C         1.0       0.2699295356107526  0.9806231647756937  0.5789865725272806 1.0000   
         C         C         1.0       0.28389219601234567           0.9893434927117537 0.5527933650023701 1.0000   
         C         C         1.0       0.29053716376654914           0.9631091557594322 0.7147819150710556 1.0000   
         C         C         1.0       0.32588825591761006           0.9305536120171315 0.6122099210110338 1.0000   
         C         C         1.0       0.33266568736401886           0.9410513778740728 0.6552642449588125 1.0000   
         C         C         1.0       0.3215348968382153  0.9508407733386145  0.6883398103077175 1.0000   
         C         C         1.0       0.30393061767423113           0.9500080704025172 0.6817753407500955 1.0000   
         C         C         1.0       0.2974746802690328  0.9387371500958034  0.6397401119789112 1.0000   
         C         C         1.0       0.3083329976408046  0.9293291382275228  0.6041134798416071 1.0000   
         C         C         1.0       0.27392091371560423           0.9554074549570056 0.7440498902824403 1.0000   
         C         C         1.0       0.2599632458951663  0.9656929388744575  0.762960482621849  1.0000   
         C         C         1.0       0.2471278597802162  0.9588802282213892  0.7953194660866941 1.0000   
         C         C         1.0       0.24723375251909646           0.9419140196068972 0.8117292437989553 1.0000   
         C         C         1.0       0.2605144327442917  0.9311204482235954  0.7907919187353754 1.0000   
         C         C         1.0       0.2737354559183896  0.9383544443492845  0.758976451084706  1.0000   
         C         C         1.0       0.3067615239548973  0.9605055368290744  0.8146261737622704 1.0000   
         C         C         1.0       0.31453642224836315           0.9678236653071021 0.8618046321674272 1.0000   
         C         C         1.0       0.3137908469494234  0.9857648784013959  0.8710873254143723 1.0000   
         C         C         1.0       0.3064269937643651  0.9961496579227731  0.8295729249227038 1.0000   
         C         C         1.0       0.29840955796720403           0.9889004700109026 0.7829432968796791 1.0000   
         C         C         1.0       0.29857057769936096           0.9711224636156176 0.7746510367141353 1.0000   
         H         H         1.0       0.29353739356529707           1.398035583899393e-05        0.3742609217746808 1.0000   
         H         H         1.0       0.31479813535523893           0.9754473038117869 0.5213942040557727 1.0000   
         H         H         1.0       0.34241106671536803           0.9753497790187707 0.47661055881923675          1.0000   
         H         H         1.0       0.3228969661074796  0.0018042629797172527        0.3292713521376871 1.0000   
         H         H         1.0       0.287903957257889   0.9570859748028473  0.49852369533933194          1.0000   
         H         H         1.0       0.26701240294943607           0.9350151021828054 0.47206108237104116          1.0000   
         H         H         1.0       0.24211499121376667           0.9705056824841278 0.3590517407989893 1.0000   
         H         H         1.0       0.26298401640720875           0.9907669602848327 0.37988273909328335          1.0000   
         H         H         1.0       0.3074169489279577  0.0017469511756089684        0.5676968583638907 1.0000   
         H         H         1.0       0.31052654033969235           0.9889435370076662 0.6633943195138845 1.0000   
         H         H         1.0       0.2640944670842359  0.9623399149422359  0.6338017537165169 1.0000   
         H         H         1.0       0.25786627449648764           0.9779194270980459 0.5553143137972678 1.0000   
         H         H         1.0       0.346548741370966   0.9416273806382269  0.6646905799919793 1.0000   
         H         H         1.0       0.326617151713943   0.9605163881792558  0.7172674148398082 1.0000   
         H         H         1.0       0.2836558568583473  0.9383194300725441  0.6275313674344147 1.0000   
         H         H         1.0       0.302870830507481   0.9212720847678808  0.5686527508567047 1.0000   
         H         H         1.0       0.25943538116349596           0.9794707360224589 0.7550979994960723 1.0000   
         H         H         1.0       0.23704076654367184           0.9675484646562572 0.8131258285310927 1.0000   
         H         H         1.0       0.26190512762198215           0.917813682433578  0.8065789984786739 1.0000   
         H         H         1.0       0.2843427311420968  0.9303516466771615  0.7504086678075469 1.0000   
         H         H         1.0       0.30688534292202285           0.9468161163734785 0.8104258566002633 1.0000   
         H         H         1.0       0.31802929410955555           0.9589627054765532 0.8942410691346562 1.0000   
         H         H         1.0       0.3046715716123434  0.009020600032229265         0.837608520766216  1.0000   
         H         H         1.0       0.29184308870370623           0.9975800460015412 0.7552860835585745 1.0000   
         C         C         1.0       0.29029953833303407           0.8552755133179845 0.19055740681837396          1.0000   
         C         C         1.0       0.27618202116686186           0.8478274271034258 0.1659359670650582 1.0000   
         C         C         1.0       0.27832053334052276           0.8330452819088449 0.1379355073532451 1.0000   
         C         C         1.0       0.2941503941210805  0.826359586045647   0.12540236627837298          1.0000   
         C         C         1.0       0.3081120471115744  0.833448557326398   0.15282227783709668          1.0000   
         C         C         1.0       0.30611299115123586           0.8472263346943769 0.18875226746905716          1.0000   
         H         H         1.0       0.2632103155984885  0.8518212489395622  0.16977345594895188          1.0000   
         H         H         1.0       0.2666075306445553  0.8283643041541147  0.11779547988359673          1.0000   
         H         H         1.0       0.3211987073289198  0.8287001945882174  0.14983731698469493          1.0000   
         H         H         1.0       0.31773448871630733           0.8516074927012729 0.21425380099545244          1.0000   
         C         C         1.0       0.3210992493487408  0.8267911240258358  0.02605514241452145          1.0000   
         C         C         1.0       0.3141229860287518  0.8112962369129053  0.047332636338393685         1.0000   
         C         C         1.0       0.32194355063069147           0.7959262033852474 0.028568641222862734         1.0000   
         C         C         1.0       0.33600197027694584           0.7956701954643014 0.9949331400236214 1.0000   
         C         C         1.0       0.34373280061622896           0.8112656500087227 0.9806263448799071 1.0000   
         C         C         1.0       0.3364402838028579  0.8264132806373864  0.9962612346146852 1.0000   
         C         C         1.0       0.2964913098222498  0.8106621011042606  0.08114051842343395          1.0000   
         C         C         1.0       0.28352485752684775           0.807631924301636  0.029705375655733723         1.0000   
         C         C         1.0       0.2790016043723591  0.7920645072190664  0.003371609285734767         1.0000   
         C         C         1.0       0.26724982982673007           0.7917352024675965 0.9572393472945819 1.0000   
         C         C         1.0       0.26034074274890656           0.8063253183493969 0.9345519468777236 1.0000   
         C         C         1.0       0.2660566391897848  0.8220360204772758  0.957072092365965  1.0000   
         C         C         1.0       0.27656408233969476           0.8220660014823998 0.004187317874251972         1.0000   
         C         C         1.0       0.3115805427263257  0.7926168038061977  0.16129422405539254          1.0000   
         C         C         1.0       0.3109224599840305  0.7824412831698823  0.2107235325185532 1.0000   
         C         C         1.0       0.2958077212804339  0.774208565289169   0.22841769107313303          1.0000   
         C         C         1.0       0.2827523417590695  0.7735346206735804  0.19083316739941109          1.0000   
         C         C         1.0       0.2820317157979199  0.7852472803370183  0.14389470124913617          1.0000   
         C         C         1.0       0.296406089224768   0.7954613238622603  0.12900340302955715          1.0000   
         C         C         1.0       0.291684042319934   0.7696490088349038  0.2936943842566821 1.0000   
         C         C         1.0       0.34062654054522734           0.7749632505681309 0.384361560189825  1.0000   
         C         C         1.0       0.3285532774893181  0.7870565323282284  0.39238212496421704          1.0000   
         C         C         1.0       0.31225980003454207           0.7844450214404488 0.3681648132856836 1.0000   
         C         C         1.0       0.3083584286051469  0.7701447809925357  0.3329658033328075 1.0000   
         C         C         1.0       0.3220923430466126  0.759255961544468   0.32332952570356627          1.0000   
         C         C         1.0       0.33777113956941646           0.761664843322674  0.3470064275990188 1.0000   
         C         C         1.0       0.2875144422633617  0.7494565383115457  0.30773221123801714          1.0000   
         C         C         1.0       0.2916873932552274  0.735997555803224   0.2705057872319975 1.0000   
         C         C         1.0       0.2928197902897497  0.7190854698534055  0.2911219353197294 1.0000   
         C         C         1.0       0.2891187302935227  0.7155250444750593  0.3478545700679472 1.0000   
         C         C         1.0       0.2854666436458692  0.7290345902059527  0.38465691247822315          1.0000   
         C         C         1.0       0.28312387082672325           0.7450471646043846 0.36403025661809746          1.0000   
         C         C         1.0       0.2588684453623239  0.7770310255075146  0.30944297562716744          1.0000   
         C         C         1.0       0.24520366798153861           0.787715092955356  0.3054313011787476 1.0000   
         C         C         1.0       0.24802092152199384           0.8036170991463998 0.285271980445851  1.0000   
         C         C         1.0       0.26481592549336624           0.8096792620603825 0.28123554390011757          1.0000   
         C         C         1.0       0.2786234037743107  0.7995821636485738  0.29615542512437404          1.0000   
         C         C         1.0       0.2756462871742548  0.7827561715653699  0.30780947261450997          1.0000   
         H         H         1.0       0.31540337729632295           0.8389904478793854 0.037035209202365804         1.0000   
         H         H         1.0       0.3151488857830456  0.7844890088435925  0.03615502910895585          1.0000   
         H         H         1.0       0.34288928919490164           0.7838040456254689 0.9866984201405498 1.0000   
         H         H         1.0       0.34174529270347154           0.8390469780390204 0.9848943934554437 1.0000   
         H         H         1.0       0.28284009303407487           0.7798387423087295 0.022039704933040083         1.0000   
         H         H         1.0       0.2643364263563699  0.780049743393221   0.9391840845793098 1.0000   
         H         H         1.0       0.2616428619840563  0.8346918775181494  0.9386950416654336 1.0000   
         H         H         1.0       0.2787387580320898  0.8347705574235706  0.02264320677987497          1.0000   
         H         H         1.0       0.3240866043176679  0.7992730190835565  0.15422848538025907          1.0000   
         H         H         1.0       0.32145405173440744           0.782861697755246  0.23710954449203234          1.0000   
         H         H         1.0       0.2708937579727966  0.7668003307319067  0.19919371521061532          1.0000   
         H         H         1.0       0.2712583087938435  0.7854515685433059  0.11492697177243728          1.0000   
         H         H         1.0       0.332520196042185   0.7976608359591238  0.4198897086727051 1.0000   
         H         H         1.0       0.3027602336467309  0.7939248800717144  0.37585245165941267          1.0000   
         H         H         1.0       0.3218358704958324  0.7490919026214847  0.2931681457426912 1.0000   
         H         H         1.0       0.3487380447261165  0.75454749565886    0.33547071132732875          1.0000   
         H         H         1.0       0.2956171525237034  0.7383897990648625  0.22745550318529312          1.0000   
         H         H         1.0       0.2985282978038273  0.7091752154432931  0.26164863076438805          1.0000   
         H         H         1.0       0.2826561347420148  0.7283933390591422  0.42978897150100004          1.0000   
         H         H         1.0       0.28083186208151006           0.7553592262591364 0.3962132721454418 1.0000   
         H         H         1.0       0.25594215348571464           0.7627736717862019 0.3096340559838981 1.0000   
         H         H         1.0       0.2323225225852895  0.7812678407174396  0.30372553009112896          1.0000   
         H         H         1.0       0.26761154948711086           0.8229804196327908 0.2719859495947746 1.0000   
         H         H         1.0       0.2905470287098937  0.804302035801453   0.2894536330576908 1.0000   
         C         C         1.0       0.246355895047128   0.906084449934485   0.44443213427270256          1.0000   
         C         C         1.0       0.24154945786737114           0.8944789472283696 0.48713488209581   1.0000   
         C         C         1.0       0.2486567781809148  0.8781766568102614  0.48762941384432096          1.0000   
         C         C         1.0       0.2631709808121777  0.8748279458618211  0.4541888575245127 1.0000   
         C         C         1.0       0.26836214251142126           0.887356387916677  0.4163201875721882 1.0000   
         C         C         1.0       0.26151774138418565           0.9032252884034557 0.41373237048223904          1.0000   
         H         H         1.0       0.23093302475740618           0.8976186637579338 0.5131661641149476 1.0000   
         H         H         1.0       0.2429086134290254  0.8675860551100966  0.5133727205686638 1.0000   
         H         H         1.0       0.2796318488396809  0.8859501451708732  0.3852830271120027 1.0000   
         H         H         1.0       0.26661512445163493           0.9133905721391041 0.3854587033370226 1.0000   
         C         C         1.0       0.295077775021096   0.8466170889899086  0.3775775611820429 1.0000   
         C         C         1.0       0.28941264825742463           0.8559671615339808 0.4257781922581795 1.0000   
         C         C         1.0       0.3016573311548227  0.8659694468217796  0.456985423002312  1.0000   
         C         C         1.0       0.3189574088078037  0.8654035939835287  0.44256082505067074          1.0000   
         C         C         1.0       0.32449610287036734           0.8571584097436287 0.3934392034187122 1.0000   
         C         C         1.0       0.31225952440158156           0.8487865154827297 0.3589277060982949 1.0000   
         C         C         1.0       0.2701680513781823  0.8560926154570515  0.4447244728407793 1.0000   
         C         C         1.0       0.2553634952567304  0.8505419673734211  0.3988392297138171 1.0000   
         C         C         1.0       0.24122435356240243           0.8417099714921573 0.4203796845439974 1.0000   
         C         C         1.0       0.23071842284257266           0.8330258156629828 0.3834109618027488 1.0000   
         C         C         1.0       0.23280363112627453           0.8349468949448288 0.3240619426984483 1.0000   
         C         C         1.0       0.24443762233010632           0.8466156188385161 0.30365761610479675          1.0000   
         C         C         1.0       0.256295968435248   0.8535960212866243  0.34038441062370195          1.0000   
         C         C         1.0       0.27346328642441164           0.8458087457541046 0.5531647265490206 1.0000   
         C         C         1.0       0.277179911962689   0.8329244078487839  0.5906539622542549 1.0000   
         C         C         1.0       0.278126531965764   0.816034449627068   0.5743728840600217 1.0000   
         C         C         1.0       0.27815760542284945           0.8128728029254032 0.5149035093834191 1.0000   
         C         C         1.0       0.2753093684182518  0.8251212764883216  0.4772678271506305 1.0000   
         C         C         1.0       0.271073855015856   0.8416134284644979  0.49405248872919727          1.0000   
         C         C         1.0       0.2824688825222792  0.8006438100672459  0.6185767972892958 1.0000   
         C         C         1.0       0.33896650844120363           0.8112173763281327 0.6110484983490729 1.0000   
         C         C         1.0       0.32867898651833444           0.8186045809539669 0.6520360709037635 1.0000   
         C         C         1.0       0.3113723732740043  0.8147689050874076  0.6541746551627    1.0000   
         C         C         1.0       0.3030370512780392  0.8034666265978634  0.6169197647996426 1.0000   
         C         C         1.0       0.31385640917262875           0.7974164124046159 0.5715111885179015 1.0000   
         C         C         1.0       0.3314107840024328  0.8011142796810239  0.5713151645217315 1.0000   
         C         C         1.0       0.27676362183577674           0.7820850298694791 0.5940582221966758 1.0000   
         C         C         1.0       0.26280757245105424           0.7802908177681773 0.5592528395027443 1.0000   
         C         C         1.0       0.2583167629563953  0.7651809310760924  0.5327456116811585 1.0000   
         C         C         1.0       0.2665340910014835  0.750509978047133   0.548092071827283  1.0000   
         C         C         1.0       0.280114826421731   0.7510334661590885  0.5850134378930226 1.0000   
         C         C         1.0       0.28481922280066396           0.7665459379530397 0.609994807053811  1.0000   
         C         C         1.0       0.2815439041468526  0.7909005127257962  0.7238152870432294 1.0000   
         C         C         1.0       0.2730849550014468  0.7896706300397297  0.7749842405474463 1.0000   
         C         C         1.0       0.2573492485967051  0.7971800364958164  0.784028667695262  1.0000   
         C         C         1.0       0.25020342590681666           0.8068136536566007 0.741152549536662  1.0000   
         C         C         1.0       0.258389108738648   0.8086788933723326  0.6894474210751274 1.0000   
         C         C         1.0       0.2740596250956984  0.8005307775951442  0.6790677321336261 1.0000   
         H         H         1.0       0.288557633295851   0.8380658301365942  0.3466999378673358 1.0000   
         H         H         1.0       0.2984294084251261  0.8736447546311044  0.4938525752011093 1.0000   
         H         H         1.0       0.32827990100889487           0.8714669527541133 0.4716083050971445 1.0000   
         H         H         1.0       0.3153985519940903  0.8423321226209608  0.3185332435754411 1.0000   
         H         H         1.0       0.23888267081864337           0.8409743429360096 0.46588385091734885          1.0000   
         H         H         1.0       0.22124151923998983           0.8254132042743351 0.4014639411236271 1.0000   
         H         H         1.0       0.24586190247469647           0.8481021722639652 0.25736238326210853          1.0000   
         H         H         1.0       0.2669925550667863  0.8611914386892435  0.3264361769498997 1.0000   
         H         H         1.0       0.2713617689748988  0.8584166474465313  0.563490465565602  1.0000   
         H         H         1.0       0.27936956008546465           0.836249520672741  0.6364499905640405 1.0000   
         H         H         1.0       0.28132941706549264           0.8008179002067867 0.494087772770337  1.0000   
         H         H         1.0       0.27558256602011033           0.8210822403396651 0.4331670883751334 1.0000   
         H         H         1.0       0.33280989215160733           0.8292343623733166 0.6778661520341616 1.0000   
         H         H         1.0       0.30408343295498147           0.8229593966621749 0.6833984643182367 1.0000   
         H         H         1.0       0.3085109045537965  0.7910512649803368  0.535881864127413  1.0000   
         H         H         1.0       0.33846079921419514           0.7975668972968982 0.5307083805793859 1.0000   
         H         H         1.0       0.25435512786739944           0.7905674180760762 0.5537852254870012 1.0000   
         H         H         1.0       0.24808901452174212           0.7636458413260323 0.5045755759874611 1.0000   
         H         H         1.0       0.28642331713756847           0.7386648229260512 0.5981591654318257 1.0000   
         H         H         1.0       0.29558472748627906           0.7668163775900274 0.6412655301532745 1.0000   
         H         H         1.0       0.29347216635781526           0.7834791004489362 0.7178588583488732 1.0000   
         H         H         1.0       0.27741266833519346           0.780596260336972  0.804193076401979  1.0000   
         H         H         1.0       0.23903116953818485           0.8145131102442099 0.7460234804343797 1.0000   
         H         H         1.0       0.25234263220287156           0.8149368081395121 0.6523750516775436 1.0000   
         C         C         1.0       0.2471880751142929  0.805940947600961   0.8849761175503033 1.0000   
         C         C         1.0       0.24649239392659672           0.7923869831016577 0.8399578639039486 1.0000   
         H         H         1.0       0.24574374845366234           0.8196072010397095 0.8692559913745012 1.0000   
         H         H         1.0       0.2348281395555925  0.8035246573727809  0.9127512538312053 1.0000   
         H         H         1.0       0.23289096023255226           0.7903832708002482 0.8305100064299149 1.0000   
         H         H         1.0       0.2505168384680152  0.7802321917493922  0.857364279176246  1.0000   
         C         C         1.0       0.23425028417601307           0.8124135223125509 0.24943782081604815          1.0000   
         C         C         1.0       0.2224068219543127  0.8235788006219911  0.2822813900845051 1.0000   
         H         H         1.0       0.22683973648747122           0.8020314422035142 0.22709203921071672          1.0000   
         H         H         1.0       0.24096303746962103           0.8201001692525608 0.21758130864470426          1.0000   
         H         H         1.0       0.21362670383684784           0.8151495977726447 0.30827487874612447          1.0000   
         H         H         1.0       0.21411228545648134           0.8323246538030334 0.2602066044628438 1.0000   
         C         C         1.0       0.240606807601667   0.9362365366862299  0.3941339291227224 1.0000   
         C         C         1.0       0.2356689149164245  0.9235049764913371  0.43935087852826843          1.0000   
         H         H         1.0       0.2282636142064723  0.9433433694471447  0.3854787571816501 1.0000   
         H         H         1.0       0.24336267608989504           0.9289725794444517 0.35149235950297   1.0000   
         H         H         1.0       0.22180037377489922           0.9220490325654546 0.43746055535403944          1.0000   
         H         H         1.0       0.23847801217420603           0.9300055001089719 0.48003318920616156          1.0000   
         C         C         1.0       0.2312249823663016  0.94673834314463    0.910003881952645  1.0000   
         C         C         1.0       0.23491213661163884           0.9350625130680906 0.8571487451964076 1.0000   
         H         H         1.0       0.21983506425145458           0.9415638303964491 0.9340783328786164 1.0000   
         H         H         1.0       0.2267212628897878  0.9595170511353991  0.8938928301888527 1.0000   
         H         H         1.0       0.22246199697679442           0.9322929486463468 0.8304681170331706 1.0000   
         H         H         1.0       0.23848946281348452           0.9211704016877618 0.8699931122717014 1.0000   
         C         C         1.0       0.24852499156596994           0.058249999293775945         0.38228920357654517          1.0000   
         C         C         1.0       0.2571213482575453  0.05903300342384821           0.4417511263288159 1.0000   
         H         H         1.0       0.23628692325784842           0.05090163511875656          0.3896922630782394 1.0000   
         H         H         1.0       0.2435034191734498  0.07034767128071584           0.36659652874572324          1.0000   
         H         H         1.0       0.2467104949119691  0.06287338521866248           0.4726161522669839 1.0000   
         H         H         1.0       0.266752826577302   0.06924719168138282           0.440876623298473  1.0000   
         C         C         1.0       0.3008419722362394  0.887514240669271   0.2021535230513285 1.0000   
         C         C         1.0       0.28812622529848264           0.8725332139406181 0.22069720384019198          1.0000   
         H         H         1.0       0.3085419850306513  0.885023669438575   0.1650123797241856 1.0000   
         H         H         1.0       0.3120497602630593  0.8880313655302372  0.23413310347884697          1.0000   
         H         H         1.0       0.2749683837354737  0.8769184762492773  0.21579825934457286          1.0000   
         H         H         1.0       0.2904735172273704  0.8721003838108579  0.2705904683788324 1.0000   
         C         C         1.0       0.3762483025364526  0.8070237636696856  0.9973296658103877 1.0000   
         C         C         1.0       0.36146683966836685           0.8121648564117655 0.9551503343493669 1.0000   
         H         H         1.0       0.37546050096009936           0.8129371321537442 0.04161766521813126          1.0000   
         H         H         1.0       0.3770886424038226  0.7928805093262239  0.005475408476552479         1.0000   
         H         H         1.0       0.3630136249374582  0.8049293608453565  0.9165144820961639 1.0000   
         H         H         1.0       0.36406415211818216           0.825707744111005  0.9401810501030382 1.0000   
         C         C         1.0       0.3709480706794716  0.8029163075903861  0.6081726148301858 1.0000   
         C         C         1.0       0.3574996284168093  0.8170902862709356  0.6124568997215636 1.0000   
         H         H         1.0       0.3709431534035777  0.7976778705450127  0.5613336377313094 1.0000   
         H         H         1.0       0.36795413811353156           0.791931866053746  0.636007509620492  1.0000   
         H         H         1.0       0.3586582202717253  0.8282153486645536  0.5799551493271559 1.0000   
         H         H         1.0       0.36142360759193964           0.8214503072071621 0.6532377277759402 1.0000   
         C         C         1.0       0.45918145447552683           0.9012368332796624 0.5715870449036554 1.0000   
         C         C         1.0       0.4667356220751792  0.8992814609427224  0.5083204296777805 1.0000   
         H         H         1.0       0.4486918516648661  0.9094226596688502  0.5730428534784483 1.0000   
         H         H         1.0       0.46774894448712595           0.9081509518586499 0.6028000557280668 1.0000   
         H         H         1.0       0.46871543500116614           0.9122566094703951 0.491585751835531  1.0000   
         H         H         1.0       0.47966820941547217           0.8941870083328002 0.5093067484186284 1.0000   
         C         C         1.0       0.45715009569456605           0.7587979926474665 0.059558854464858646         1.0000   
         C         C         1.0       0.473290576614127   0.7659666207903442  0.021725099988370244         1.0000   
         H         H         1.0       0.45679509150161296           0.7447144018417796 0.052068313376574915         1.0000   
         H         H         1.0       0.4450576299196832  0.7626773456539577  0.037229971739540124         1.0000   
         H         H         1.0       0.47652304867122836           0.7560615860633031 0.9933548259154156 1.0000   
         H         H         1.0       0.4840604834329437  0.7686472341656733  0.04936741265257738          1.0000   
         C         C         1.0       0.35369042629971603           0.8409071551421038 0.40610330057816724          1.0000   
         C         C         1.0       0.34382727703278837           0.85534951691697   0.3798772078061511 1.0000   
         H         H         1.0       0.35184045000540626           0.840610242123185  0.4518396673358166 1.0000   
         H         H         1.0       0.3492233797716263  0.8275331722777548  0.3880563199680412 1.0000   
         H         H         1.0       0.34527777299176904           0.8578445039050641 0.3319528298873064 1.0000   
         H         H         1.0       0.3506158056947236  0.8665397905033979  0.3985989555609591 1.0000   
         C         C         1.0       0.3710093877320732  0.7876269358325189  0.36963846924773375          1.0000   
         C         C         1.0       0.3592180169181408  0.7770964111005302  0.4082856519239893 1.0000   
         H         H         1.0       0.37250670310826545           0.8001892691161459 0.3858725846229442 1.0000   
         H         H         1.0       0.3634908325578892  0.790945530010337   0.33341150425820487          1.0000   
         H         H         1.0       0.3653321105967953  0.7641746885252666  0.41212560771285245          1.0000   
         H         H         1.0       0.3597201749806643  0.7818500336040041  0.45478614066330464          1.0000   
         C         C         1.0       0.3670001102131327  0.9481006962884174  0.04473234680031468          1.0000   
         C         C         1.0       0.35276382630651076           0.9590949545057988 0.01579652948886512          1.0000   
         H         H         1.0       0.362053292378705   0.9345583707636562  0.04545091255838951          1.0000   
         H         H         1.0       0.3691783432701111  0.9515689187762303  0.09033179017532023          1.0000   
         H         H         1.0       0.351655423864844   0.9549123499464183  0.972007005311729  1.0000   
         H         H         1.0       0.35621999257390824           0.973397263461592  0.016830668955337913         1.0000   
         C         C         1.0       0.3515384139956088  0.9316076128143486  0.5339508760429447 1.0000   
         C         C         1.0       0.33829053364741224           0.9211948499429975 0.5705343188346093 1.0000   
         H         H         1.0       0.3448615077917565  0.9430544342545807  0.5136815544570815 1.0000   
         H         H         1.0       0.3547595436213175  0.9226385579832738  0.4966875276722265 1.0000   
         H         H         1.0       0.3449966976973051  0.9114575120470255  0.5968462547476179 1.0000   
         H         H         1.0       0.3302993415130533  0.9136393827339357  0.543642654641269  1.0000   
         C         C         1.0       0.4774099436681365  0.9067005819148215  0.9675436827712552 1.0000   
         C         C         1.0       0.47201767809608736           0.8915545439152941 0.006721197551104341         1.0000   
         H         H         1.0       0.48168019626241937           0.9034362392301758 0.9246329895463985 1.0000   
         H         H         1.0       0.48838616520132    0.9138906868879685  0.9907693512018532 1.0000   
         H         H         1.0       0.4638569221437682  0.8975171886747182  0.038932836941246274         1.0000   
         H         H         1.0       0.48458655129771333           0.8881473239034314 0.0304149871157815 1.0000   
         C         C         1.0       0.35483831985312375           0.9763250150114477 0.32994638046357816          1.0000   
         C         C         1.0       0.35111973521130885           0.9913145091820381 0.36890391980531667          1.0000   
         H         H         1.0       0.3453038627652795  0.9782848614195385  0.2969676556866706 1.0000   
         H         H         1.0       0.3507663696074163  0.9653853265257779  0.3509427737069206 1.0000   
         H         H         1.0       0.36161398854387533           0.9914360952430431 0.4011000146940587 1.0000   
         H         H         1.0       0.3531957666699241  0.0031368097155430874        0.34681498947027584          1.0000   
         C         C         1.0       0.3564986363301822  0.03799868374684201           0.11394909256937549          1.0000   
         C         C         1.0       0.3510959924462928  0.02073694262463288           0.13939966677172372          1.0000   
         H         H         1.0       0.35050199017879285           0.048958900707874564         0.14136536526184923          1.0000   
         H         H         1.0       0.35288073668142544           0.04040674736857208          0.06893321952157039          1.0000   
         H         H         1.0       0.3589213976758982  0.017320582570526044         0.17905682401806636          1.0000   
         H         H         1.0       0.3556083436539166  0.010860392433062582         0.10859276423822316          1.0000   
         C         C         1.0       0.4766640464291355  0.9717104008988053  0.4474705220986619 1.0000   
         C         C         1.0       0.4719364171625276  0.9541329943533619  0.4774796111834846 1.0000   
         H         H         1.0       0.4893481823768922  0.9693093114433391  0.4259381147100748 1.0000   
         H         H         1.0       0.4769215974210808  0.9828598263928332  0.4748657739116611 1.0000   
         H         H         1.0       0.48268069162774996           0.9483836806113206 0.5036416608788609 1.0000   
         H         H         1.0       0.4684176623215754  0.9429852036929394  0.44507019820200827          1.0000   
         C         C         1.0       0.46342551758144873           0.02833834962040549          0.89327681819333   1.0000   
         C         C         1.0       0.4526366898262535  0.02404799028940663           0.8399589112501503 1.0000   
         H         H         1.0       0.4695975004454897  0.04083035269350099           0.8793647973869747 1.0000   
         H         H         1.0       0.473648670368947   0.01967634535665308           0.8948676220887626 1.0000   
         H         H         1.0       0.46194009686208    0.023964065433006887         0.8033695344606896 1.0000   
         H         H         1.0       0.4431840499730676  0.03541071030098575           0.8334825486821995 1.0000   
         C         C         1.0       0.43296758442652067           0.912630828446211  0.11852394758779534          1.0000   
         C         C         1.0       0.42066160451889245           0.8980237359781471 0.1322630839469277 1.0000   
         H         H         1.0       0.4308351661001331  0.9159905554511251  0.07320854980051128          1.0000   
         H         H         1.0       0.4463088364286856  0.9085298445796484  0.12230070671134134          1.0000   
         H         H         1.0       0.42159773044615617           0.88807942854737   0.09777609891192118          1.0000   
         H         H         1.0       0.40684374642525717           0.9024014157822263 0.13145959106657348          1.0000   
         C         C         1.0       0.4739252927471141  0.38467176742399695           0.45377368778766813          1.0000   
         C         C         1.0       0.4821050865106486  0.381643447156524   0.5112129577447906 1.0000   
         H         H         1.0       0.4652435952040967  0.37374904036890494           0.4461030764313518 1.0000   
         H         H         1.0       0.48531998835050644           0.38345056247174986          0.4236725181627832 1.0000   
         H         H         1.0       0.4922660932160691  0.39140366103677754           0.5139808742599059 1.0000   
         H         H         1.0       0.48987956181534886           0.36972809310517885          0.5155456721394148 1.0000   
         C         C         1.0       0.5079774856839914  0.3943837396788576  0.020163915274164612         1.0000   
         C         C         1.0       0.5001642534652595  0.39077553313872954           0.9596054707172306 1.0000   
         H         H         1.0       0.5158735663326176  0.40663362399866587           0.01980894083451279          1.0000   
         H         H         1.0       0.5181988345614721  0.38574628254608007           0.03189699103781507          1.0000   
         H         H         1.0       0.4946557483633554  0.3774329264900196  0.9594525148821    1.0000   
         H         H         1.0       0.5103420934096938  0.38964588654835874           0.927729460102527  1.0000   
         C         C         1.0       0.4911766406982977  0.32161020213868624           0.7722406908885336 1.0000   
         C         C         1.0       0.4904363047241472  0.33440189325728975           0.8217205609538579 1.0000   
         H         H         1.0       0.4975127200045826  0.31004899499522054           0.7898191785258198 1.0000   
         H         H         1.0       0.500979839291807   0.32696659985683985           0.7435340752307642 1.0000   
         H         H         1.0       0.503301230650058   0.33997438030490706           0.8321259866566643 1.0000   
         H         H         1.0       0.48734421212598383           0.3271335056562537 0.8600477244698824 1.0000   
         C         C         1.0       0.4498456173538542  0.25488601568119057           0.4275619193233239 1.0000   
         C         C         1.0       0.44649273512237975           0.24220117271435015          0.47599369939018943          1.0000   
         H         H         1.0       0.4450644797496476  0.2675438651470492  0.4368594711194987 1.0000   
         H         H         1.0       0.46352986823711656           0.2570623350163748 0.4237843103585857 1.0000   
         H         H         1.0       0.4570227477910363  0.2325084560971526  0.47765919865998896          1.0000   
         H         H         1.0       0.4352185705394031  0.2328533718008617  0.46806270692373436          1.0000   
         C         C         1.0       0.39526993269393623           0.3270903505587589 0.9384828464180304 1.0000   
         C         C         1.0       0.39085839929536875           0.3122628141732771 0.8973347422370443 1.0000   
         H         H         1.0       0.3842518301949628  0.33556676114529305           0.9457751422068691 1.0000   
         H         H         1.0       0.4055245259948642  0.33594978848127377           0.9221656959562355 1.0000   
         H         H         1.0       0.39217024900178277           0.31670289373128213          0.8527837322346201 1.0000   
         H         H         1.0       0.3766903653337224  0.3084964515383386  0.899883523731226  1.0000   
         C         C         1.0       0.4659421377381963  0.33051871271211336           0.32472869412323446          1.0000   
         C         C         1.0       0.4617422201766937  0.34531883851944895           0.3659193803656101 1.0000   
         H         H         1.0       0.47205901568744274           0.3202861054128028 0.3519692690961413 1.0000   
         H         H         1.0       0.47730266355670947           0.3330740159213628 0.29858579436189003          1.0000   
         H         H         1.0       0.4725961892018926  0.3472243403750984  0.39858377287811014          1.0000   
         H         H         1.0       0.4507973781263879  0.34091887758311923           0.39540101925691284          1.0000   
         C         C         1.0       0.36321378829261686           0.37308239326900394          0.8064483778190479 1.0000   
         C         C         1.0       0.36973364738731784           0.362353794975276  0.7532088144927512 1.0000   
         H         H         1.0       0.3709336452723676  0.38450150231831454           0.8112692185714728 1.0000   
         H         H         1.0       0.36491788784658796           0.3668609360770769 0.8529342874184851 1.0000   
         H         H         1.0       0.366971253401322   0.3490678826288237  0.7638457957933484 1.0000   
         H         H         1.0       0.360268838603629   0.36552029789054113           0.7179702091590415 1.0000   
         C         C         1.0       0.37319156002842524           0.4550588029819422 0.4775682036184221 1.0000   
         C         C         1.0       0.3720747912558983  0.4380761884666138  0.513640634762572  1.0000   
         H         H         1.0       0.3646594030863155  0.45276274912981246           0.44216719424510037          1.0000   
         H         H         1.0       0.3695417604180057  0.4673190596940602  0.5009525526482447 1.0000   
         H         H         1.0       0.37890924707038404           0.4401505373077094 0.5580127396515743 1.0000   
         H         H         1.0       0.3794914810240565  0.4277446127369822  0.4918948002518454 1.0000   
         C         C         1.0       0.2590553055600799  0.4640412679943015  0.850152597153141  1.0000   
         C         C         1.0       0.25196701963588003           0.4465637819830058 0.8255443699038783 1.0000   
         H         H         1.0       0.24809694701528082           0.47361989019753103          0.8596833725606177 1.0000   
         H         H         1.0       0.26627420130004903           0.46914088170923623          0.8128706936216912 1.0000   
         H         H         1.0       0.24536492953553035           0.4496792693387586 0.7857011304562731 1.0000   
         H         H         1.0       0.2431609550639183  0.44090250965481453           0.8563519945285513 1.0000   
         C         C         1.0       0.27603233737438393           0.34934544788009847          0.2945490398488615 1.0000   
         C         C         1.0       0.2898323802803592  0.3465574646888856  0.3429946908052377 1.0000   
         H         H         1.0       0.26652929771745554           0.35819705134395374          0.3096717773797388 1.0000   
         H         H         1.0       0.26894294972019267           0.3370811677960335 0.28716425253616656          1.0000   
         H         H         1.0       0.2827547049842054  0.33763727774383934           0.3721701513971421 1.0000   
         H         H         1.0       0.3014275668419392  0.34000609110722024           0.32445919909595244          1.0000   
         C         C         1.0       0.38003349469016706           0.36528073602136335          0.091644516781207  1.0000   
         C         C         1.0       0.39052669005672375           0.3761524641560327 0.04923204433341954          1.0000   
         H         H         1.0       0.3826642795358331  0.3689253185665366  0.13656153137509927          1.0000   
         H         H         1.0       0.3833084421605176  0.3512169294365535  0.08044525431248006          1.0000   
         H         H         1.0       0.3831816984972935  0.3882236354924732  0.03994577524596598          1.0000   
         H         H         1.0       0.3923092486687914  0.36991279874461364           0.005926539337194336         1.0000   
         C         C         1.0       0.3847910576160799  0.44328462234759936           0.043767199807867696         1.0000   
         C         C         1.0       0.3753430933367398  0.45970082876299934           0.06255392555902928          1.0000   
         H         H         1.0       0.37561584908756407           0.434979831114806  0.02049431568730853          1.0000   
         H         H         1.0       0.3857554916242309  0.4347868777268495  0.08402049264949052          1.0000   
         H         H         1.0       0.37750006435321637           0.46989971459159846          0.027871905081800374         1.0000   
         H         H         1.0       0.38202158695190963           0.464394450776997  0.10026152761690454          1.0000   
         C         C         1.0       0.3603141217746999  0.3179594165179161  0.6218330359558617 1.0000   
         C         C         1.0       0.3731600757730014  0.3237854838140708  0.6684917842092137 1.0000   
         H         H         1.0       0.3669581062922805  0.31370147339438936           0.57846866504629   1.0000   
         H         H         1.0       0.35384088034819    0.3300865763458779  0.6054721839900459 1.0000   
         H         H         1.0       0.3777579231538709  0.33704041414063524           0.6600044734794116 1.0000   
         H         H         1.0       0.3661499563788744  0.3247485566933184  0.7081437139593517 1.0000   
         C         C         1.0       0.34471305229340826           0.22016021227283583          0.2755852233786497 1.0000   
         C         C         1.0       0.35242754159769984           0.20206323478866273          0.26168050874176546          1.0000   
         H         H         1.0       0.3409301765208499  0.22798516210570485           0.23859043994302312          1.0000   
         H         H         1.0       0.3548537959118445  0.22841320722191713           0.2933615212569962 1.0000   
         H         H         1.0       0.3535019630413292  0.19511202234791067           0.304425163627187  1.0000   
         H         H         1.0       0.3443801917304015  0.195585457509675   0.23111881249932875          1.0000   
         C         C         1.0       0.24823011673996973           0.31169740762745335          0.7467041261058396 1.0000   
         C         C         1.0       0.24560701266124005           0.32805861737687897          0.7123131078692471 1.0000   
         H         H         1.0       0.2497371262873697  0.31538059575523425           0.7908376905625244 1.0000   
         H         H         1.0       0.2357210051069565  0.3045024754835504  0.7475551194604275 1.0000   
         H         H         1.0       0.23240940519840525           0.3334834837480156 0.7270885499576839 1.0000   
         H         H         1.0       0.24382935589699628           0.32549536881165353          0.6664681661119245 1.0000   
         C         C         1.0       0.33325442135336175           0.3295780963956208 0.22278191650819745          1.0000   
         C         C         1.0       0.34493685920490114           0.32536554766427783          0.2742995006034374 1.0000   
         H         H         1.0       0.33966752672211586           0.33597119902871897          0.18812260330773306          1.0000   
         H         H         1.0       0.32442747576982023           0.3387545144167702 0.24100365246286953          1.0000   
         H         H         1.0       0.34381605190418124           0.33487229051066686          0.3080626387329476 1.0000   
         H         H         1.0       0.339080806620585   0.3146511748761916  0.29739838835225674          1.0000   
         C         C         1.0       0.38824819695037294           0.1851700472768508 0.060841445175978226         1.0000   
         C         C         1.0       0.39953231309466203           0.18619408120408748          0.007337787535667939         1.0000   
         H         H         1.0       0.39439509164913905           0.19029590143340328          0.09942667336387245          1.0000   
         H         H         1.0       0.3878022698635315  0.17119744238941112           0.06887967434757636          1.0000   
         H         H         1.0       0.4094219019066304  0.17720096634537205           0.019289981381846788         1.0000   
         H         H         1.0       0.3929194323132361  0.1785455240678764  0.974674932641889  1.0000   
         C         C         1.0       0.3172162283258013  0.20006096560071385           0.7511599573052077 1.0000   
         C         C         1.0       0.3051044705864541  0.1925375076794095  0.7970530478709295 1.0000   
         H         H         1.0       0.3304963625274544  0.19938422385482799           0.767792533685076  1.0000   
         H         H         1.0       0.31767836213639083           0.19217455434010797          0.7093313616692645 1.0000   
         H         H         1.0       0.3040885858219129  0.17891145695359914           0.7876605164833627 1.0000   
         H         H         1.0       0.291265642356569   0.19649826489524058           0.7870343399622561 1.0000   
         C         C         1.0       0.23372578885875903           0.24589000494181013          0.24430815817570095          1.0000   
         C         C         1.0       0.2288996087965275  0.25327408595045503           0.30349852842989633          1.0000   
         H         H         1.0       0.2219510166777315  0.24510948786871778           0.21846220582756978          1.0000   
         H         H         1.0       0.23702838914519764           0.23221723707279726          0.25263176326438086          1.0000   
         H         H         1.0       0.22868490052041374           0.2671402244474444 0.3012037167152668 1.0000   
         H         H         1.0       0.21594408838104964           0.2490331413933997 0.3186228308817961 1.0000   
         C         C         1.0       0.2633915744381277  0.31693256429910477           0.9212389914486434 1.0000   
         C         C         1.0       0.2727113182384077  0.33181347843054165           0.8886214946701864 1.0000   
         H         H         1.0       0.26040340845514404           0.3068208352693793 0.8883397086733184 1.0000   
         H         H         1.0       0.2506254713790844  0.32089952232486907           0.9402941202500309 1.0000   
         H         H         1.0       0.2641670134420313  0.3407470176893818  0.8632899183172456 1.0000   
         H         H         1.0       0.27961637270010475           0.32590531597072797          0.8531491228310027 1.0000   
         C         C         1.0       0.41814784401050265           0.04857529919201298          0.7085719529403287 1.0000   
         C         C         1.0       0.4220144122847143  0.04051172911056811           0.6473878102056431 1.0000   
         H         H         1.0       0.40513788462706835           0.05528303031570636          0.7054454346810108 1.0000   
         H         H         1.0       0.4155112009563478  0.038738784191089115         0.7394548165411519 1.0000   
         H         H         1.0       0.43530031517323015           0.04122440305028774          0.6286926478602529 1.0000   
         H         H         1.0       0.41685750813947064           0.048389501816227476         0.610686028322781  1.0000   
         C         C         1.0       0.46481861510283046           0.1143988799672635 0.24929088514313438          1.0000   
         C         C         1.0       0.4542910439341419  0.09840334945554319           0.26483512445727336          1.0000   
         H         H         1.0       0.46019604716999984           0.12572451974796595          0.271409286525519  1.0000   
         H         H         1.0       0.46339959162642086           0.11813364367737655          0.20300252177250777          1.0000   
         H         H         1.0       0.4584635281471738  0.09306968492025347           0.3085140526264337 1.0000   
         H         H         1.0       0.44120744341830465           0.10245541473495456          0.2747614884379812 1.0000   
         C         C         1.0       0.4895498415562766  0.08394257517339154           0.09181856620590834          1.0000   
         C         C         1.0       0.4790559805832865  0.07265154932030193           0.04978489114740725          1.0000   
         H         H         1.0       0.48361132766989334           0.09717894069282584          0.0930086842467337 1.0000   
         H         H         1.0       0.4885353798550257  0.07926437123100749           0.1351425509850912 1.0000   
         H         H         1.0       0.466434701056034   0.06912797607699717           0.06946490612583545          1.0000   
         H         H         1.0       0.4855278392761692  0.06088441760505581           0.04974879581418734          1.0000   
         C         C         1.0       0.5454054019404895  0.04130511154669492           0.4530070665535312 1.0000   
         C         C         1.0       0.5291228239037995  0.04089815179585998           0.49802362793347965          1.0000   
         H         H         1.0       0.5451973911887201  0.02986443021266849           0.4240055336858275 1.0000   
         H         H         1.0       0.5570736980039487  0.0398707998189729  0.47976343086624945          1.0000   
         H         H         1.0       0.5170611015684878  0.04318504290489278           0.47393197658316316          1.0000   
         H         H         1.0       0.5281127327184336  0.02737073227923159           0.5115244902463633 1.0000   
         C         C         1.0       0.6195035502884882  0.09855216348372053           0.764751105918521  1.0000   
         C         C         1.0       0.6060393967432233  0.11258848384203723           0.7499499797789918 1.0000   
         H         H         1.0       0.6124761616898686  0.0867327850830808  0.7730983947663754 1.0000   
         H         H         1.0       0.625312819289416   0.10319800460834472           0.8064533894942991 1.0000   
         H         H         1.0       0.6117191664813139  0.1197828924367581  0.7136240276721781 1.0000   
         H         H         1.0       0.6034335702901038  0.12131382379443756           0.7854190003019964 1.0000   
         C         C         1.0       0.7415863177940435  0.984976960700855   0.9538381562018355 1.0000   
         C         C         1.0       0.7378121662580617  0.983379247080201   0.8890555513345039 1.0000   
         H         H         1.0       0.7400330506166695  0.9720877929539196  0.9780190885532892 1.0000   
         H         H         1.0       0.7556226343569122  0.987300285929327   0.9630221179748303 1.0000   
         H         H         1.0       0.7247168014635513  0.9770497068866593  0.8884238238009525 1.0000   
         H         H         1.0       0.746364012471801   0.9735740161554028  0.8706878254903239 1.0000   
         C         C         1.0       0.644259763172956   0.06358480197074656           0.41268601519014764          1.0000   
         C         C         1.0       0.6507158792829089  0.07349949911830889           0.3560364417698075 1.0000   
         H         H         1.0       0.6443991067051855  0.04985020239113869           0.40062757319248316          1.0000   
         H         H         1.0       0.6304142715419131  0.06712904734261449           0.41729057709215756          1.0000   
         H         H         1.0       0.6415339939621659  0.06971907304057146           0.32207844918390705          1.0000   
         H         H         1.0       0.6483369061074792  0.0874094459235224  0.364019922798717  1.0000   
         C         C         1.0       0.6264651868088456  0.023105682465206945         0.0937543876276241 1.0000   
         C         C         1.0       0.6126602667128473  0.026907583617173714         0.04791008783736106          1.0000   
         H         H         1.0       0.623720920376438   0.009423222351982785         0.10074745491564907          1.0000   
         H         H         1.0       0.622236245699437   0.029027620143565303         0.13274284808432543          1.0000   
         H         H         1.0       0.6058688180725371  0.01465106266969074           0.03994984421208824          1.0000   
         H         H         1.0       0.6176144126978681  0.02936454345353523           0.004111809014435641         1.0000   
         C         C         1.0       0.5010637324880641  0.2748961180901664  0.9996942263535491 1.0000   
         C         C         1.0       0.49285455267910555           0.2603930307964429 0.03352611352775403          1.0000   
         H         H         1.0       0.5121411335396432  0.28141456992133973           0.024222948566023472         1.0000   
         H         H         1.0       0.49106220063782097           0.2854658513084641 0.00031343959300822455       1.0000   
         H         H         1.0       0.5020962985660555  0.24863423754790068           0.0356479303965096 1.0000   
         H         H         1.0       0.4918306442274891  0.2652048028596597  0.07901256840128101          1.0000   
         C         C         1.0       0.5959271852960502  0.1367883249564706  0.9230584834909229 1.0000   
         C         C         1.0       0.5916005861372232  0.1535008617056266  0.9516816420713028 1.0000   
         H         H         1.0       0.5892426411982856  0.13562210652290463           0.879464225154666  1.0000   
         H         H         1.0       0.6108210725553144  0.13534892773486357           0.9188892861753922 1.0000   
         H         H         1.0       0.600908489450598   0.15641570441286137           0.9867862439220897 1.0000   
         H         H         1.0       0.5798915133834793  0.1529976562877742  0.9806724861187963 1.0000   
         C         C         1.0       0.46522017254981096           0.18410532356793288          0.7475625728573043 1.0000   
         C         C         1.0       0.47758750728428495           0.16849515796422027          0.7533607549085366 1.0000   
         H         H         1.0       0.4560299062527425  0.18393850677173745           0.7851434477390544 1.0000   
         H         H         1.0       0.45798357160181163           0.1817282321556259 0.707434129954656  1.0000   
         H         H         1.0       0.48976288609590196           0.171050098836756  0.7758000478000858 1.0000   
         H         H         1.0       0.4823349230694957  0.16596030028084086           0.7101772017208835 1.0000   
         C         C         1.0       0.48626161884297076           0.20356993756940997          0.048561340094408705         1.0000   
         C         C         1.0       0.4718634944248539  0.19098019876673009           0.06762319464323152          1.0000   
         H         H         1.0       0.4943977467892812  0.19756167951792356           0.014857626220047049         1.0000   
         H         H         1.0       0.4796016743834438  0.21428324350037392           0.028025003627352604         1.0000   
         H         H         1.0       0.47725671576301754           0.17949147999521883          0.08951920081358966          1.0000   
         H         H         1.0       0.4651622290300406  0.18658085004720462           0.029390827195611813         1.0000   
         C         C         1.0       0.53916488776447    0.1685869535912134  0.5754327948916786 1.0000   
         C         C         1.0       0.5213076775457     0.175554416327328   0.5643294102898663 1.0000   
         H         H         1.0       0.546876174008434   0.17732393400319157           0.6017561679434767 1.0000   
         H         H         1.0       0.547475987511058   0.1700389906130518  0.5371936331607068 1.0000   
         H         H         1.0       0.5162935577887078  0.17624405390471684           0.6112239344428974 1.0000   
         H         H         1.0       0.5134415511087792  0.16613917133861145           0.5356170956632877 1.0000   
         C         C         1.0       0.5737456437748122  0.17000203805633907           0.3914442825219287 1.0000   
         C         C         1.0       0.5810170689355113  0.1793530450725598  0.33682660767397243          1.0000   
         H         H         1.0       0.5840905701390179  0.16782655655450796           0.42150001994140573          1.0000   
         H         H         1.0       0.5654967016578936  0.1793661219067639  0.41268321906415056          1.0000   
         H         H         1.0       0.5841845414376867  0.16927428237801725           0.30400602793199916          1.0000   
         H         H         1.0       0.5931976129187204  0.18514717154655105           0.34964239214596476          1.0000   
         C         C         1.0       0.5048420570070055  0.30373603039978725           0.5524786677510631 1.0000   
         C         C         1.0       0.512656259978081   0.30542101322702675           0.6143480357361336 1.0000   
         H         H         1.0       0.4907373385104687  0.3020721133783307  0.561737347493975  1.0000   
         H         H         1.0       0.5063225559850897  0.3160881143782978  0.5267885357361097 1.0000   
         H         H         1.0       0.5050843193298422  0.3140984772504908  0.6404598076243629 1.0000   
         H         H         1.0       0.5272103169297402  0.30847656994801115           0.611448244895969  1.0000   
         C         C         1.0       0.5728081069112857  0.27149551742933403           0.04388413921982148          1.0000   
         C         C         1.0       0.5651510003854043  0.27342823638924024           0.9829936853847591 1.0000   
         H         H         1.0       0.5734118728406138  0.28474239758030606           0.06362481347569471          1.0000   
         H         H         1.0       0.5865752486089529  0.26664989273156653           0.0434001389135894 1.0000   
         H         H         1.0       0.5500539131535949  0.27317065426690024           0.9841269199701126 1.0000   
         H         H         1.0       0.5694675823743048  0.28481191106325254           0.961526553621324  1.0000   
         C         C         1.0       0.678859832671983   0.09464619293269494           0.8500906391281993 1.0000   
         C         C         1.0       0.6976444835515662  0.08914806770122752           0.8558934269493489 1.0000   
         H         H         1.0       0.6695762401462363  0.09069865484570316           0.8832421335354019 1.0000   
         H         H         1.0       0.6743764573397893  0.08842409188811673           0.8118902740978735 1.0000   
         H         H         1.0       0.7024228490245628  0.08523279026207688           0.8134791090364474 1.0000   
         H         H         1.0       0.7063066564096472  0.09983170942483488           0.8660863151899194 1.0000   
         C         C         1.0       0.7732120878916566  0.12303889734624773           0.7966527752249329 1.0000   
         C         C         1.0       0.7552353379815536  0.11431544080783951           0.7953637711821042 1.0000   
         H         H         1.0       0.7803897445900685  0.12274807208454608           0.7547317676237678 1.0000   
         H         H         1.0       0.7816393571205523  0.11783653310003239           0.8297803106954785 1.0000   
         H         H         1.0       0.7468598869783898  0.12170722537782709           0.7623457833147217 1.0000   
         H         H         1.0       0.7478287657964734  0.11778814615803969           0.8357505591298993 1.0000   
         C         C         1.0       0.6436462480264266  0.19987364717057546           0.6474764859036909 1.0000   
         C         C         1.0       0.636055049214474   0.21727671464033388           0.6564866390840951 1.0000   
         H         H         1.0       0.6547101458842484  0.19922923571218834           0.6190009719719517 1.0000   
         H         H         1.0       0.6345246843184654  0.19157329607134008           0.6278811803736212 1.0000   
         H         H         1.0       0.6335224813218019  0.22255507028509855           0.6094203608314464 1.0000   
         H         H         1.0       0.6456951105771757  0.22608078060843223           0.6714173258898429 1.0000   
         C         C         1.0       0.7278009015941687  0.1536481697245084  0.6630136977320749 1.0000   
         C         C         1.0       0.7336439411235053  0.13597156053085854           0.639017676479431  1.0000   
         H         H         1.0       0.7394036557128142  0.16115313535431858           0.6774003330683352 1.0000   
         H         H         1.0       0.721221164066259   0.1513975907550622  0.7056216174223593 1.0000   
         H         H         1.0       0.7431394371309413  0.13087494907894986           0.6693889261028795 1.0000   
         H         H         1.0       0.7418369653808274  0.1371207063570175  0.5996001663588306 1.0000   
         C         C         1.0       0.7689682784199176  0.12573690230791135           0.2849074324229921 1.0000   
         C         C         1.0       0.7663532126845064  0.1381910414314193  0.23305317423428962          1.0000   
         H         H         1.0       0.7665673915262924  0.13124356904407977           0.3288160176642321 1.0000   
         H         H         1.0       0.7824435755836735  0.12257952774262193           0.2913328339012274 1.0000   
         H         H         1.0       0.763178177874902   0.13107857406749535           0.19105350596490484          1.0000   
         H         H         1.0       0.7790242139178349  0.14481711924361265           0.22047688407298413          1.0000   
         C         C         1.0       0.7334502115832505  0.25105784668817893           0.642717662897716  1.0000   
         C         C         1.0       0.7496867462427431  0.2439642209184099  0.6743753180257865 1.0000   
         H         H         1.0       0.7265556266556851  0.2574667379307747  0.6763415177930135 1.0000   
         H         H         1.0       0.7362397111564443  0.26084750315236055           0.6114467296210631 1.0000   
         H         H         1.0       0.7558493829880765  0.2554825619637704  0.6928231869062669 1.0000   
         H         H         1.0       0.7578691332092673  0.23938747364173574           0.6425189868552729 1.0000   
         C         C         1.0       0.6501074060197096  0.18733656083507597           0.1333158425817128 1.0000   
         C         C         1.0       0.6452959127312701  0.19779414976243437           0.07766321261874842          1.0000   
         H         H         1.0       0.6479466313306879  0.17355060560472924           0.12209858835419425          1.0000   
         H         H         1.0       0.6398905469049786  0.19085750067325444           0.16824703056420598          1.0000   
         H         H         1.0       0.6309560965852198  0.19781253953694555           0.07460031363794672          1.0000   
         H         H         1.0       0.6502039642340377  0.21125357641037643           0.07958886952599942          1.0000   
         C         C         1.0       0.6064018913686234  0.22354022592005945           0.5243274090347566 1.0000   
         C         C         1.0       0.6188675069098867  0.21498242731576292           0.48139840798889555          1.0000   
         H         H         1.0       0.6120740832287956  0.23497883123373664           0.5465687731782911 1.0000   
         H         H         1.0       0.6046392611429307  0.2138396716270124  0.5601939850327418 1.0000   
         H         H         1.0       0.6207177394004719  0.22468431761147606           0.4490912619722506 1.0000   
         H         H         1.0       0.6113885221256115  0.204578818062099   0.45831142129801594          1.0000   
         C         C         1.0       0.3035687688369336  0.9966324487612761  0.9699663207392936 1.0000   
         C         C         1.0       0.31899690834062533           0.9925242483185986 0.9296205261151053 1.0000   
         H         H         1.0       0.3091083132620235  0.9993471522544758  0.012070401173651879         1.0000   
         H         H         1.0       0.2953139568362112  0.9849289368474924  0.9746021355534313 1.0000   
         H         H         1.0       0.32706673342384407           0.0049696599367823335        0.9225769099981322 1.0000   
         H         H         1.0       0.3281327468553018  0.9833259127440753  0.9517299268006167 1.0000   
         C         C         1.0       0.23311236820581427           0.09365576947697196          0.11077691047842408          1.0000   
         C         C         1.0       0.2368632518870726  0.07898467767335804           0.06735296896281384          1.0000   
         H         H         1.0       0.22642483454257623           0.10452747666793405          0.09289489803228923          1.0000   
         H         H         1.0       0.245014872411643   0.09872397429279434           0.1263342806500982 1.0000   
         H         H         1.0       0.22481686063123932           0.07610249435824779          0.040298532403269416         1.0000   
         H         H         1.0       0.24611870950973125           0.08261736388823149          0.034333356766853784         1.0000   
         C         C         1.0       0.17113000599615202           0.0037988756182025796        0.16934960446148617          1.0000   
         C         C         1.0       0.18048155536214486           0.0038525724876083967        0.1091761813926333 1.0000   
         H         H         1.0       0.17195709049861405           0.991400357646576  0.19125956306938918          1.0000   
         H         H         1.0       0.15680526108845108           0.0043565456929790525        0.1611118934278486 1.0000   
         H         H         1.0       0.19423908708275656           0.0006018696677410063        0.11023081675269153          1.0000   
         H         H         1.0       0.17391754878932747           0.9923662743252453 0.09099229503715756          1.0000   
         C         C         1.0       0.2701303588105785  0.0683391948137766  0.6023327701969946 1.0000   
         C         C         1.0       0.279696826428229   0.05354522665446626           0.6351824058743977 1.0000   
         H         H         1.0       0.2737163513951154  0.07907705068703552           0.6243960143856839 1.0000   
         H         H         1.0       0.27596902591130396           0.07055470795164398          0.5610278854662044 1.0000   
         H         H         1.0       0.29383633583615304           0.05640424364590113          0.630646175788774  1.0000   
         H         H         1.0       0.2778618521530032  0.04121971328919316           0.6129883817949091 1.0000   
         C         C         1.0       0.13433127088956986           0.06885120956549606          0.7012763855191052 1.0000   
         C         C         1.0       0.1466066793886271  0.054746378977575505         0.7130138541200436 1.0000   
         H         H         1.0       0.12640376116326046           0.06701128488544228          0.6618190864871943 1.0000   
         H         H         1.0       0.14182328271955247           0.08043401493475888          0.6892879748208165 1.0000   
         H         H         1.0       0.1386949927341925  0.04298956771484508           0.7067199786878419 1.0000   
         H         H         1.0       0.15673549202018267           0.05370662717451835          0.6769322502469075 1.0000   
         C         C         1.0       0.13189663538979324           0.04876506086511534          0.10121497148711933          1.0000   
         C         C         1.0       0.12374585835742669           0.04403202785645921          0.043899642861059185         1.0000   
         H         H         1.0       0.14153033860108466           0.05828164637846234          0.09022895270166686          1.0000   
         H         H         1.0       0.13930608958273405           0.036887590911979684         0.11371610786084307          1.0000   
         H         H         1.0       0.13485344265543442           0.03996966211095443          0.01396959122132535          1.0000   
         H         H         1.0       0.1159901220895534  0.031065744148734087         0.04849128396316682          1.0000   
         C         C         1.0       0.016192623240523618          0.02594919277059926          0.577767085700827  1.0000   
         C         C         1.0       0.0037308691640294267         0.039435587436126296         0.5996567940947801 1.0000   
         H         H         1.0       0.015213304150046403          0.014604637290194011         0.6053377991631836 1.0000   
         H         H         1.0       0.009926935493878242          0.021631237693297445         0.5376355951379921 1.0000   
         H         H         1.0       0.990915845772301   0.03124157777076353           0.6076889911865275 1.0000   
         H         H         1.0       0.0031032478274715114         0.04915593420044906          0.5647003597433721 1.0000   
         C         C         1.0       0.1537337627286858  0.005939021201741834         0.6287262739322658 1.0000   
         C         C         1.0       0.13707550215117137           0.0017432022115577706        0.5932903929191148 1.0000   
         H         H         1.0       0.16025047642462154           0.9938734607485206 0.6276517101469747 1.0000   
         H         H         1.0       0.15055737016394222           0.009187256742126504         0.6714063236570498 1.0000   
         H         H         1.0       0.13146931405064155           0.9907114447863532 0.6124904600863873 1.0000   
         H         H         1.0       0.1415852630165768  0.9965411118425699  0.5521717980405226 1.0000   
         C         C         1.0       0.26424072373812896           0.1790667919731218 0.2679856578944815 1.0000   
         C         C         1.0       0.26678922500453633           0.17272467840239275          0.20433325032964555          1.0000   
         H         H         1.0       0.2718270400507522  0.19132685769232508           0.2780042431882377 1.0000   
         H         H         1.0       0.2703476326489941  0.16895509166309836           0.2958332765459457 1.0000   
         H         H         1.0       0.25437518022125705           0.1732280037918086 0.1845435003487845 1.0000   
         H         H         1.0       0.2695933566656767  0.1585171399798412  0.20780090238596793          1.0000   
         C         C         1.0       0.16404682641823984           0.1413335201208753 0.9402671488713484 1.0000   
         C         C         1.0       0.1711610727469453  0.12909004857119338           0.9879265107177269 1.0000   
         H         H         1.0       0.15063806450375855           0.13843907362387875          0.9282136473335894 1.0000   
         H         H         1.0       0.17160085317973744           0.13965994079724417          0.9021365255563467 1.0000   
         H         H         1.0       0.16347988028306065           0.12988711739481731          0.02960664417350345          1.0000   
         H         H         1.0       0.1833020702716     0.13492133318553023           0.003642269241877827         1.0000   
         C         C         1.0       0.1494092238930265  0.12930532301328343           0.4250522319205604 1.0000   
         C         C         1.0       0.140036296723694   0.11669960231397969           0.3843069467838293 1.0000   
         H         H         1.0       0.15685874321399162           0.12192863006670336          0.45698390827797253          1.0000   
         H         H         1.0       0.14142315296280383           0.13761011318744024          0.4523077914827424 1.0000   
         H         H         1.0       0.13308489396714604           0.12544295765541102          0.35472091705203357          1.0000   
         H         H         1.0       0.13120293248106182           0.11064480845574699          0.416273211283849  1.0000   
         C         C         1.0       0.2851503610636538  0.15953463044385013           0.5526251995937815 1.0000   
         C         C         1.0       0.28772039541175354           0.15696886795842324          0.6201535015203044 1.0000   
         H         H         1.0       0.27336996431963345           0.15303866719642426          0.5407909440795196 1.0000   
         H         H         1.0       0.29373652185405463           0.15103899809391144          0.5283185712709693 1.0000   
         H         H         1.0       0.3005991025096222  0.16042473255313738           0.6382144254960629 1.0000   
         H         H         1.0       0.2897990605815201  0.14285733905662346           0.6244569933260046 1.0000   
         C         C         1.0       0.13722946210372944           0.12575162768952267          0.6000352009289903 1.0000   
         C         C         1.0       0.14229120903189885           0.10922803596274533          0.6300028055291579 1.0000   
         H         H         1.0       0.12333789078975853           0.12705439745087949          0.6065844038582862 1.0000   
         H         H         1.0       0.13903469200298765           0.1255200813636442 0.5544798563457833 1.0000   
         H         H         1.0       0.14511676405837906           0.11249832810025519          0.6764079268972414 1.0000   
         H         H         1.0       0.13167235342326714           0.09940768638739161          0.6279094183332173 1.0000   
         C         C         1.0       0.24840240799182645           0.13058398970001528          0.00852609944156879          1.0000   
         C         C         1.0       0.2641903848654087  0.11833731827347528           0.011471879274296048         1.0000   
         H         H         1.0       0.24844433427844237           0.13871974386636193          0.0458095764524411 1.0000   
         H         H         1.0       0.23585713733099403           0.12416078362981907          0.013966517115604482         1.0000   
         H         H         1.0       0.26352499415098396           0.11274315032065374          0.054597769902301474         1.0000   
         H         H         1.0       0.2772183568662988  0.12428718913964985           0.006857748077549131         1.0000   
         C         C         1.0       0.25390841118513297           0.2337960612962815 0.9673618776854201 1.0000   
         C         C         1.0       0.2533062474591319  0.22776942537434053           0.031539494445328664         1.0000   
         H         H         1.0       0.24400654396900573           0.24425495552886076          0.9579540712934566 1.0000   
         H         H         1.0       0.26702370582066987           0.23837020058115233          0.9556368959262105 1.0000   
         H         H         1.0       0.2566778581586171  0.2380466882487906  0.060020856054547655         1.0000   
         H         H         1.0       0.2628937295906245  0.21857247048459333           0.038329697595940626         1.0000   
         C         C         1.0       0.16951605911633286           0.24366507322430803          0.529183355520261  1.0000   
         C         C         1.0       0.16531472924542104           0.24312950522421026          0.4639634153717071 1.0000   
         H         H         1.0       0.1820413469332799  0.250734666132336   0.5348396686415954 1.0000   
         H         H         1.0       0.16096834670817523           0.25424435722051847          0.546250620823573  1.0000   
         H         H         1.0       0.17051881142234665           0.25454318712430074          0.4443614428790412 1.0000   
         H         H         1.0       0.15104125620127914           0.2445767991233167 0.45904803056944543          1.0000   
         C         C         1.0       0.062187062192499365          0.16984679220255844          0.9199490251182008 1.0000   
         C         C         1.0       0.0804639233847455  0.16402397695158677           0.9266168467821674 1.0000   
         H         H         1.0       0.053394557374443874          0.160376119217505  0.9410775687257245 1.0000   
         H         H         1.0       0.058104540609160704          0.1709240088436589 0.8742079132711614 1.0000   
         H         H         1.0       0.08730491514501493           0.16658538416337768          0.9655402914891064 1.0000   
         H         H         1.0       0.08906648966101782           0.17112645521781106          0.8991480417355757 1.0000   
         C         C         1.0       0.0524841346003837  0.15176327957871172           0.3215331778113635 1.0000   
         C         C         1.0       0.07139037200300802           0.1480961372878491 0.30950662802412976          1.0000   
         H         H         1.0       0.0499113013095136  0.14555419006381673           0.3633435574299608 1.0000   
         H         H         1.0       0.04482943906169945           0.14548680210870282          0.28678137805354337          1.0000   
         H         H         1.0       0.07867070296204148           0.15398746897494703          0.34247995792832   1.0000   
         H         H         1.0       0.07535142385928562           0.15378957512862207          0.2687427557798092 1.0000   
         C         C         1.0       0.1298215858400884  0.26692381723324665           0.9656109440985269 1.0000   
         C         C         1.0       0.1477957279949147  0.2670330689664512  0.9998963933057953 1.0000   
         H         H         1.0       0.13223449089317096           0.2597791220745035 0.9266965251856437 1.0000   
         H         H         1.0       0.12713581544751512           0.28015744268906045          0.9531313508889608 1.0000   
         H         H         1.0       0.14647944701515608           0.274937654636887  0.03944769172853224          1.0000   
         H         H         1.0       0.15658625053793068           0.2753790415398343 0.9774185863476277 1.0000   
         C         C         1.0       0.08505702134812498           0.1376663299596234 0.5636245961408425 1.0000   
         C         C         1.0       0.0832427481405491  0.12331873461895923           0.6096605421020208 1.0000   
         H         H         1.0       0.07376389019747953           0.13460630565997803          0.533767977250929  1.0000   
         H         H         1.0       0.0964907228065186  0.13572592625206914           0.5361628492213677 1.0000   
         H         H         1.0       0.07162120713409204           0.1255663097434961 0.6322929154253911 1.0000   
         H         H         1.0       0.09464516597902861           0.12422968562159081          0.6410426727168946 1.0000   
         C         C         1.0       0.982921495201427   0.14582613008623826           0.8368464615659216 1.0000   
         C         C         1.0       0.9723116178520835  0.1524287416764626  0.7840717913370867 1.0000   
         H         H         1.0       0.9750049867364543  0.14768269991358093           0.8759949524887687 1.0000   
         H         H         1.0       0.9932856651761529  0.1545300511236505  0.8388307653762475 1.0000   
         H         H         1.0       0.9720906387882472  0.14381271779289503           0.7488437454776917 1.0000   
         H         H         1.0       0.9587786482102659  0.1544771238446284  0.79416090608935   1.0000   
         C         C         1.0       0.992190169020154   0.2603172745398622  0.926388718874575  1.0000   
         C         C         1.0       0.004396471977701877          0.2754429566642628 0.9472391945729338 1.0000   
         H         H         1.0       0.9805513598830056  0.2650526686022942  0.9142242348496686 1.0000   
         H         H         1.0       0.9901721776378893  0.25231972120199914           0.9648827114845262 1.0000   
         H         H         1.0       0.9979592181292714  0.2831270039880026  0.9816464223945668 1.0000   
         H         H         1.0       0.00771851058914752           0.28398007155399746          0.9106437744109298 1.0000   
         C         C         1.0       0.10143165299070711           0.25623198866294544          0.4362951263707294 1.0000   
         C         C         1.0       0.09768297301558992           0.25870005598802415          0.5011649195857166 1.0000   
         H         H         1.0       0.11321340029662763           0.24911222019281523          0.4296026962138341 1.0000   
         H         H         1.0       0.10578868527029894           0.2686114850812854 0.41645589951843326          1.0000   
         H         H         1.0       0.0860290946349691  0.26714951197656445           0.5086574566826284 1.0000   
         H         H         1.0       0.10773956437443855           0.26831195786182027          0.5169774496344562 1.0000   
         C         C         1.0       0.1334359397915384  0.20969645298570405           0.9050507826769663 1.0000   
         C         C         1.0       0.11442875872895364           0.20461779945724695          0.9022955158471456 1.0000   
         H         H         1.0       0.1374912233041352  0.2066712610592012  0.9496347249535593 1.0000   
         H         H         1.0       0.1328372448627162  0.22376547484928774           0.9046603707873222 1.0000   
         H         H         1.0       0.10614562626321655           0.21385125797529153          0.9292996268336516 1.0000   
         H         H         1.0       0.11142545111368451           0.19197101717258874          0.9197076107553008 1.0000   
         C         C         1.0       0.45715538598323135           0.5212459263833848 0.7928540363133121 1.0000   
         C         C         1.0       0.4703228105503562  0.508106043816025   0.8155924846245471 1.0000   
         H         H         1.0       0.4477667105073665  0.5154088924255991  0.7578573576564878 1.0000   
         H         H         1.0       0.44753728359610573           0.5229990370168366 0.8280405773234105 1.0000   
         H         H         1.0       0.4786621750008013  0.5144867801695464  0.8474890889919585 1.0000   
         H         H         1.0       0.48089689065075375           0.5054231001615118 0.7801105102722808 1.0000   
         C         C         1.0       0.48414312126626724           0.5102133997195922 0.2528884829382853 1.0000   
         C         C         1.0       0.4760005491795707  0.5112479009291628  0.3110663803981456 1.0000   
         H         H         1.0       0.47416344030443813           0.5118979230889431 0.22369634668752114          1.0000   
         H         H         1.0       0.4896726710071397  0.49766521836482136           0.24519010730389726          1.0000   
         H         H         1.0       0.48431308032417236           0.5130442820079872 0.34783942854371197          1.0000   
         H         H         1.0       0.46729787973374576           0.5226044869201362 0.3097114894146288 1.0000   
         C         C         1.0       0.5167597101549276  0.6351202343807879  0.5198677931412677 1.0000   
         C         C         1.0       0.49943776088797154           0.6266559372419749 0.5364850719973473 1.0000   
         H         H         1.0       0.521734696048371   0.6428631349983538  0.5552515661099345 1.0000   
         H         H         1.0       0.5145625387515245  0.6439827996725712  0.4838668766976674 1.0000   
         H         H         1.0       0.49335541664161253           0.6210024623871327 0.4985921877903457 1.0000   
         H         H         1.0       0.4897711896926478  0.6358040810552844  0.5428028259022917 1.0000   
         C         C         1.0       0.5735722830537346  0.5194417608775868  0.045365241685994644         1.0000   
         C         C         1.0       0.5835590129814587  0.5261726574825971  0.9936620094385759 1.0000   
         H         H         1.0       0.58121854327743    0.5104077334622609  0.07078667235823465          1.0000   
         H         H         1.0       0.5635416301746583  0.5106343425009985  0.027570509809412114         1.0000   
         H         H         1.0       0.5956573509089842  0.5303449452890959  0.011921786159412529         1.0000   
         H         H         1.0       0.5882321425304621  0.5152940579136522  0.9673581882206403 1.0000   
         C         C         1.0       0.5883069406649928  0.637206747171655   0.6913691279389536 1.0000   
         C         C         1.0       0.5844198333931638  0.6199820474136066  0.656081709308598  1.0000   
         H         H         1.0       0.5752530337660783  0.6419431209357515  0.7038664901166194 1.0000   
         H         H         1.0       0.5936466303421951  0.6457343616600424  0.6583956853015879 1.0000   
         H         H         1.0       0.5957366284373592  0.6149331851505698  0.6350663157654959 1.0000   
         H         H         1.0       0.574781358346896   0.6218755535083603  0.6213778355512901 1.0000   
         C         C         1.0       0.7240418775494585  0.5483931498023453  0.5999455835554186 1.0000   
         C         C         1.0       0.7203659731940989  0.5388553763526528  0.6577196654484755 1.0000   
         H         H         1.0       0.7279266388474098  0.5394756931701041  0.5662335826636059 1.0000   
         H         H         1.0       0.7344468895999461  0.558892245088505   0.5992275941963833 1.0000   
         H         H         1.0       0.7106061270451933  0.5296758776991292  0.6536185235952587 1.0000   
         H         H         1.0       0.73166374308914    0.5315397103361047  0.6702986514516682 1.0000   
         C         C         1.0       0.6052769716650566  0.5880643611202655  0.09303796832450706          1.0000   
         C         C         1.0       0.6035697912150471  0.5952982340632995  0.15359060244128012          1.0000   
         H         H         1.0       0.5916523867480635  0.5883058792599295  0.08501731250759148          1.0000   
         H         H         1.0       0.6081692102187207  0.5746280262875423  0.09164447906907469          1.0000   
         H         H         1.0       0.5982419733737574  0.6078523939450119  0.14940430305850008          1.0000   
         H         H         1.0       0.5939495519208795  0.587126586970458   0.17567326109516965          1.0000   
         C         C         1.0       0.6041719683946992  0.5480073904644429  0.67572529739369   1.0000   
         C         C         1.0       0.5965619373532384  0.535472789234882   0.6256145050252617 1.0000   
         H         H         1.0       0.6086657864189058  0.5395995272452971  0.7134728350904985 1.0000   
         H         H         1.0       0.5945819392297925  0.5564475400580231  0.6948861878858039 1.0000   
         H         H         1.0       0.5873965471496057  0.526643637930681   0.645119538527256  1.0000   
         H         H         1.0       0.6075170624596069  0.5286901126370834  0.6061473530911425 1.0000   
         C         C         1.0       0.4959002809844937  0.7698444685482256  0.5717850574297897 1.0000   
         C         C         1.0       0.4779239375364899  0.773939449794168   0.5561867980820234 1.0000   
         H         H         1.0       0.5021693461606487  0.7811142651241737  0.5939805308052039 1.0000   
         H         H         1.0       0.5029942410082656  0.7692857406924261  0.5274369290711629 1.0000   
         H         H         1.0       0.4690865932008661  0.7630309950695155  0.5607040469431738 1.0000   
         H         H         1.0       0.4779552207720455  0.7763135719770097  0.5082301315327434 1.0000   
         C         C         1.0       0.6084832331851441  0.6618371760707813  0.4710251025657704 1.0000   
         C         C         1.0       0.6187447247208829  0.644932016292285   0.4721897984618666 1.0000   
         H         H         1.0       0.6158200382232399  0.6727856287921832  0.4506601694997383 1.0000   
         H         H         1.0       0.5973484577570294  0.6594657756175031  0.4432576672370772 1.0000   
         H         H         1.0       0.6266864670410993  0.6425643919004446  0.5109662874062967 1.0000   
         H         H         1.0       0.6269685830340964  0.6433809940505495  0.43644546226090253          1.0000   
         C         C         1.0       0.44877564449924257           0.6523384249895633 0.7401759234449132 1.0000   
         C         C         1.0       0.4541456007724966  0.6599793485241845  0.6831085898526312 1.0000   
         H         H         1.0       0.4357076810006248  0.6508128711897465  0.7341077760548151 1.0000   
         H         H         1.0       0.4494912013978259  0.6623718287761999  0.7775741821243305 1.0000   
         H         H         1.0       0.442476518885616   0.6654337036310969  0.6591768360521433 1.0000   
         H         H         1.0       0.45711853212183395           0.6485034630257421 0.6522953667005121 1.0000   
         C         C         1.0       0.49915960836147294           0.724915865405329  0.41938462804036614          1.0000   
         C         C         1.0       0.4930902107750131  0.7422205126106771  0.4427630945379977 1.0000   
         H         H         1.0       0.49130381430500025           0.7189861787543808 0.3849284272990896 1.0000   
         H         H         1.0       0.49901445157996205           0.7160020564861679 0.45609788842331106          1.0000   
         H         H         1.0       0.5040714274831625  0.7497774042804232  0.4583509765600732 1.0000   
         H         H         1.0       0.4843256273226022  0.7406083343637879  0.4811072200878025 1.0000   
         C         C         1.0       0.5853169257032745  0.6412418778809087  0.03979096967645779          1.0000   
         C         C         1.0       0.5659260816254871  0.6356917179357923  0.03685787241960692          1.0000   
         H         H         1.0       0.5917930431976753  0.6384615277464524  0.99896217014169   1.0000   
         H         H         1.0       0.5914655207089948  0.6313599194834865  0.07013585322695493          1.0000   
         H         H         1.0       0.5615715011249176  0.6316172759763089  0.08212333563785013          1.0000   
         H         H         1.0       0.5578749209124506  0.6468129858984959  0.025249037113819206         1.0000   
         C         C         1.0       0.5389053044602946  0.6315896110028153  0.2676901527909918 1.0000   
         C         C         1.0       0.5543147111871515  0.6384621536796086  0.3014106528701552 1.0000   
         H         H         1.0       0.5266184417214151  0.6331784463055432  0.28997726367056215          1.0000   
         H         H         1.0       0.5375782305969588  0.636269234195323   0.22140901490082784          1.0000   
         H         H         1.0       0.5661428199585965  0.6332243878793302  0.2801252272472424 1.0000   
         H         H         1.0       0.5531919818932042  0.6327528942326979  0.3466073471242977 1.0000   
         C         C         1.0       0.5023074341200084  0.7276156765910867  0.9695567408616823 1.0000   
         C         C         1.0       0.5071931138648984  0.7150314516327865  0.018835007365874956         1.0000   
         H         H         1.0       0.4880195080608739  0.7282183490495319  0.9675531610544956 1.0000   
         H         H         1.0       0.505537846574288   0.7409712181731598  0.9765620451436993 1.0000   
         H         H         1.0       0.5024665424953285  0.7017603143733259  0.008378342225267899         1.0000   
         H         H         1.0       0.5004448892318388  0.7185513920496983  0.06053977246464437          1.0000   
         C         C         1.0       0.6247188783970088  0.7422245814503071  0.4773816672425717 1.0000   
         C         C         1.0       0.6164073754232208  0.7519555774027276  0.5297255026802756 1.0000   
         H         H         1.0       0.6350168936367796  0.7333724450909176  0.4906119340054888 1.0000   
         H         H         1.0       0.6319747574046268  0.7518315397340848  0.44992258816774894          1.0000   
         H         H         1.0       0.606531507696995   0.7613957716894085  0.5122495218070231 1.0000   
         H         H         1.0       0.6259592970622466  0.7603619056145348  0.5544788302559005 1.0000   
         C         C         1.0       0.6757835730719839  0.6666460862414455  0.6397724605098765 1.0000   
         C         C         1.0       0.6628977407858514  0.656443030410483   0.6790326804703729 1.0000   
         H         H         1.0       0.6727981174086661  0.6661390525376916  0.5924509424424786 1.0000   
         H         H         1.0       0.6886373911750899  0.6605063069483024  0.6397326201734139 1.0000   
         H         H         1.0       0.6501165326567769  0.6633778101306202  0.6739881671186237 1.0000   
         H         H         1.0       0.6673187160237616  0.6585318250975133  0.7268805325414887 1.0000   
         C         C         1.0       0.7444109698477411  0.6602760499770436  0.7908257092978543 1.0000   
         C         C         1.0       0.7263340098569075  0.6567744462482685  0.7698236271027279 1.0000   
         H         H         1.0       0.7542702778179015  0.6523935743831757  0.7692603591264188 1.0000   
         H         H         1.0       0.7461163204042087  0.6559241131477452  0.8334957465934506 1.0000   
         H         H         1.0       0.7258247752083121  0.657704403874946   0.7227665188296825 1.0000   
         H         H         1.0       0.7167833414055358  0.667091590843015   0.7861710764982481 1.0000   
         C         C         1.0       0.636604298783957   0.7228260364895752  0.896279455071131  1.0000   
         C         C         1.0       0.6281450920334748  0.7054516920466454  0.8857622753235712 1.0000   
         H         H         1.0       0.6269773527370549  0.7332446459052322  0.9059038443248268 1.0000   
         H         H         1.0       0.643501404118706   0.7211230574910762  0.9377858026732928 1.0000   
         H         H         1.0       0.6221556433150994  0.6998419737519043  0.9264132531798517 1.0000   
         H         H         1.0       0.6387018603930892  0.6964702943096037  0.8818775338553522 1.0000   
         C         C         1.0       0.6797608480391414  0.6814164746185587  0.9316772460944543 1.0000   
         C         C         1.0       0.6953059440906869  0.6749756007005687  0.9680319323089407 1.0000   
         H         H         1.0       0.6852185755946137  0.6880577878596918  0.8943846602918949 1.0000   
         H         H         1.0       0.6731851096007899  0.691710572146647   0.9593249401388756 1.0000   
         H         H         1.0       0.6901468590216684  0.662752893341196   0.986050532759091  1.0000   
         H         H         1.0       0.7043290259442021  0.6715017088439189  0.9335246848339204 1.0000   
         C         C         1.0       0.6476266870290006  0.6704062744404637  0.22705811750542268          1.0000   
         C         C         1.0       0.6392734519721527  0.6844023753173387  0.2635243261081375 1.0000   
         H         H         1.0       0.6371509873993139  0.6669652935459816  0.19604169890826742          1.0000   
         H         H         1.0       0.6584077527722275  0.6761511489668585  0.20125075600695919          1.0000   
         H         H         1.0       0.62983434660363    0.678319354033155   0.2929782092091558 1.0000   
         H         H         1.0       0.6294310753473551  0.6899232366977246  0.2393366879236725 1.0000   
         C         C         1.0       0.7670746175150602  0.778457430416869   0.03889153685550495          1.0000   
         C         C         1.0       0.7807072031703453  0.7692617149906654  0.003137060732966157         1.0000   
         H         H         1.0       0.7630699739864217  0.7901821737011333  0.010956516933000149         1.0000   
         H         H         1.0       0.7732690639993843  0.7845929190360191  0.07410893204163793          1.0000   
         H         H         1.0       0.7905765967825887  0.7785456576918098  0.9913767507404737 1.0000   
         H         H         1.0       0.7860498163840329  0.7613602123960459  0.03682579185292556          1.0000   
         C         C         1.0       0.6902357570528688  0.7934263973412891  0.5522168747693176 1.0000   
         C         C         1.0       0.6774934544448205  0.7961234954094076  0.502384343063234  1.0000   
         H         H         1.0       0.688394061690911   0.8053100835822853  0.5760120232879088 1.0000   
         H         H         1.0       0.7044767762617707  0.7914852519203898  0.5395342156586532 1.0000   
         H         H         1.0       0.6807195260134953  0.8090781347376095  0.4822769768401633 1.0000   
         H         H         1.0       0.6639637781950462  0.7971855193460465  0.5165049339369281 1.0000   
         C         C         1.0       0.643635372399231   0.7679003002825714  0.9709073696443681 1.0000   
         C         C         1.0       0.6261307781263017  0.7709207053816773  0.9982525505436243 1.0000   
         H         H         1.0       0.6484331925430706  0.7806601862428371  0.9575102214527329 1.0000   
         H         H         1.0       0.6423986573787412  0.7605858806145614  0.9282465813437764 1.0000   
         H         H         1.0       0.6199790009820698  0.7805936138982731  0.9695219717172674 1.0000   
         H         H         1.0       0.6294231603311944  0.7783011448239965  0.03598972285727964          1.0000   
         C         C         1.0       0.25302781885864534           0.464573465499407  0.2828166988413532 1.0000   
         C         C         1.0       0.2703969617475378  0.47368854783004016           0.269853138111122  1.0000   
         H         H         1.0       0.2523998038129521  0.45869381330309794           0.3259087933583573 1.0000   
         H         H         1.0       0.25121067494075267           0.45353933517891337          0.2532584947892902 1.0000   
         H         H         1.0       0.27830513272133184           0.47445553583619404          0.31007456034791336          1.0000   
         H         H         1.0       0.26874805671318674           0.48722659297666643          0.2665796910230933 1.0000   
         C         C         1.0       0.2566673333451361  0.46668092159531027           0.45057214616452546          1.0000   
         C         C         1.0       0.2625577196932268  0.4851070955554183  0.427650330128314  1.0000   
         H         H         1.0       0.24638559048525488           0.4644612626816294 0.4190900600403919 1.0000   
         H         H         1.0       0.24985085731766532           0.4678670400254863 0.4911444764067662 1.0000   
         H         H         1.0       0.25667806475998634           0.4866461672989169 0.38541518076470554          1.0000   
         H         H         1.0       0.27666065599764494           0.4866202591384179 0.4243798724495099 1.0000   
         C         C         1.0       0.22664739741501808           0.522089568555798  0.8092255157728182 1.0000   
         C         C         1.0       0.21704452734081695           0.5052323578685947 0.8143739908651427 1.0000   
         H         H         1.0       0.2399215555096636  0.5195875543241253  0.83014717441136   1.0000   
         H         H         1.0       0.2204072013680427  0.5326955905630726  0.8309170275721415 1.0000   
         H         H         1.0       0.2255731967529081  0.4943027095367526  0.8060161311993498 1.0000   
         H         H         1.0       0.20884448489693544           0.5041401353697625 0.7719544459176327 1.0000   
         C         C         1.0       0.12327364628713042           0.4919871870325817 0.35475309088736035          1.0000   
         C         C         1.0       0.12467149366646439           0.49044413335175074          0.42073964315737994          1.0000   
         H         H         1.0       0.11414082329682619           0.5031061370231944 0.34760116217669396          1.0000   
         H         H         1.0       0.1174653231816587  0.48076912637143404           0.3349276605927255 1.0000   
         H         H         1.0       0.1321523675013481  0.4785955355166511  0.43018546316779666          1.0000   
         H         H         1.0       0.11269211368234244           0.4890191522757831 0.44543536486760404          1.0000   
         C         C         1.0       0.08332664812284142           0.5036084311920036 0.9605203157268022 1.0000   
         C         C         1.0       0.09622793988123801           0.49497397799550563          0.0005111170824527722        1.0000   
         H         H         1.0       0.07160516295179153           0.4951988116893791 0.9521267741984578 1.0000   
         H         H         1.0       0.08917464237016448           0.5048529583989375 0.9167107519744014 1.0000   
         H         H         1.0       0.09507271680350904           0.48084450598795636          0.9908524020088081 1.0000   
         H         H         1.0       0.09182069108014002           0.4961622250696377 0.046890139146369636         1.0000   
         C         C         1.0       0.9782762700511259  0.5524575366791163  0.8315229050876777 1.0000   
         C         C         1.0       0.9800962916703116  0.563370780061977   0.8849842893275351 1.0000   
         H         H         1.0       0.9855953988132301  0.5405535482076065  0.8413320511052482 1.0000   
         H         H         1.0       0.9650456480167426  0.5475824577876613  0.8263640973099101 1.0000   
         H         H         1.0       0.970993289639174   0.560296339593209   0.9217204104490372 1.0000   
         H         H         1.0       0.9742203564933607  0.5754953385808758  0.8733981600657872 1.0000   
         C         C         1.0       0.09858180162089769           0.5522074755212671 0.3684854866943372 1.0000   
         C         C         1.0       0.09438290909168368           0.5558701129760204 0.3050816457191347 1.0000   
         H         H         1.0       0.09367804955314418           0.5386237786686592 0.37839748285083635          1.0000   
         H         H         1.0       0.11313348834016224           0.5509475103740158 0.3753193260209713 1.0000   
         H         H         1.0       0.09806742235305    0.5436095979058113  0.28126998094513533          1.0000   
         H         H         1.0       0.10417568635539176           0.5658433674849145 0.2918000673827881 1.0000   
         C         C         1.0       0.1260610558984926  0.592774190063225   0.7228564108708667 1.0000   
         C         C         1.0       0.14498079020223145           0.5928314717218134 0.6982209684710559 1.0000   
         H         H         1.0       0.12453626378921621           0.602371716542255  0.7594205984390862 1.0000   
         H         H         1.0       0.1246059377857856  0.581271491193093   0.7451834466230974 1.0000   
         H         H         1.0       0.15366540220359245           0.5871352192536408 0.7289477123694698 1.0000   
         H         H         1.0       0.14754292725022713           0.6065240477927557 0.6851377332581635 1.0000   
         C         C         1.0       0.24266227121832082           0.7293686697249997 0.561412939927551  1.0000   
         C         C         1.0       0.259095527228456   0.7330293646860223  0.5287773523479562 1.0000   
         H         H         1.0       0.2319617926043596  0.7368086054069177  0.5436672045338646 1.0000   
         H         H         1.0       0.24471130714072462           0.7335256988068892 0.6060778049448189 1.0000   
         H         H         1.0       0.269064717929013   0.7224334664832139  0.5345203256929818 1.0000   
         H         H         1.0       0.25738713996865237           0.7320357150749464 0.4833310521858003 1.0000   
         C         C         1.0       0.18416778687055665           0.5889466241012964 0.9488219716958611 1.0000   
         C         C         1.0       0.18805814353092656           0.60102225458031   0.0033669317568927326        1.0000   
         H         H         1.0       0.19536142147748561           0.5898810104654222 0.9193717940728807 1.0000   
         H         H         1.0       0.1735294562684611  0.5960189376379704  0.9263729371205198 1.0000   
         H         H         1.0       0.19743098560004183           0.5951703530433015 0.0343982606829345 1.0000   
         H         H         1.0       0.17679774927439235           0.601618406078706  0.03719730738516791          1.0000   
         C         C         1.0       0.2724129228420491  0.6167119113401976  0.5050960035814143 1.0000   
         C         C         1.0       0.2828489251388075  0.6013412624851604  0.5320979192245613 1.0000   
         H         H         1.0       0.2665381929506983  0.6135015959101185  0.4636467113451831 1.0000   
         H         H         1.0       0.28224775099560595           0.6264297444349999 0.4969998065578871 1.0000   
         H         H         1.0       0.29119675642113585           0.6054104503900396 0.5708407157766281 1.0000   
         H         H         1.0       0.2932940175733089  0.5966298519043591  0.502911153747652  1.0000   
         C         C         1.0       0.2837238642091811  0.6900712019531161  0.4193940902234327 1.0000   
         C         C         1.0       0.2958818103845825  0.6989692069951702  0.3769168207373811 1.0000   
         H         H         1.0       0.29027864063496306           0.6816537051677553 0.4524404080057441 1.0000   
         H         H         1.0       0.27876330406854516           0.6998158719663929 0.45068210359918615          1.0000   
         H         H         1.0       0.2995677431671262  0.6884326016749314  0.34321328100142606          1.0000   
         H         H         1.0       0.3078823300645984  0.7013255396572341  0.4022631651889175 1.0000   
         C         C         1.0       0.14849442755263662           0.5783132554303262 0.2524997443207735 1.0000   
         C         C         1.0       0.16068569891216491           0.5932377166067362 0.23650340799626693          1.0000   
         H         H         1.0       0.14851724259700363           0.5682216741143288 0.22103042064595405          1.0000   
         H         H         1.0       0.1348719423328437  0.5838848183882674  0.2521583733231393 1.0000   
         H         H         1.0       0.15932681980265395           0.594264353416236  0.19021112940662604          1.0000   
         H         H         1.0       0.17355345540317027           0.5886504028298222 0.24234548806107675          1.0000   
         C         C         1.0       0.21029286152733037           0.5837546507888256 0.28736583222747947          1.0000   
         C         C         1.0       0.2247059493452356  0.5708158562384243  0.28708865058064276          1.0000   
         H         H         1.0       0.20016576637415698           0.5796458238162634 0.31837673306534087          1.0000   
         H         H         1.0       0.20320112753336078           0.5811968323698041 0.24510753644324143          1.0000   
         H         H         1.0       0.2322398683141637  0.5710746344794019  0.326430416751727  1.0000   
         H         H         1.0       0.2319975459175096  0.5738654069168365  0.24815679354049938          1.0000   
         C         C         1.0       0.24899954060242252           0.7027271271424139 0.04511099474901625          1.0000   
         C         C         1.0       0.2599524915557459  0.693219333607228   0.09193325226274385          1.0000   
         H         H         1.0       0.2576404787789244  0.7101440617509799  0.018189231772884895         1.0000   
         H         H         1.0       0.2404127393901076  0.7120892409041465  0.06759034362236527          1.0000   
         H         H         1.0       0.2658923318866284  0.7045274151788316  0.1108847135037292 1.0000   
         H         H         1.0       0.26965334193416657           0.6846239819043751 0.07551293482412413          1.0000   
         C         C         1.0       0.13565555554044287           0.6572916523801102 0.594122280221032  1.0000   
         C         C         1.0       0.14649542328278936           0.6441226303326253 0.623274932108351  1.0000   
         H         H         1.0       0.13777523019854454           0.6701324140616798 0.6168285810183193 1.0000   
         H         H         1.0       0.12248067509852018           0.6538673773017368 0.6027554141441119 1.0000   
         H         H         1.0       0.1452800517925337  0.631726820008219   0.6003421415674529 1.0000   
         H         H         1.0       0.14192086681071356           0.6421530301465053 0.6677416604697166 1.0000   
         C         C         1.0       0.1121400583051142  0.6204790407262869  0.8937645647012766 1.0000   
         C         C         1.0       0.1034114260131731  0.6029707032241278  0.8838031030347138 1.0000   
         H         H         1.0       0.12278969221701375           0.6223534696841261 0.8621993589126322 1.0000   
         H         H         1.0       0.11730182597326522           0.6216246194985281 0.9360410614161633 1.0000   
         H         H         1.0       0.09972757218177009           0.6006163583479665 0.8368621090396519 1.0000   
         H         H         1.0       0.1125357746680935  0.5927343191967893  0.8927352264681064 1.0000   
         C         C         1.0       0.9903358844489651  0.6606475306740918  0.5312290280045024 1.0000   
         C         C         1.0       0.9739719224597302  0.6499764346730538  0.5467051529428788 1.0000   
         H         H         1.0       0.9882758005174376  0.6699816449727609  0.49818898961484065          1.0000   
         H         H         1.0       0.0018140493290201842         0.6531081734911187 0.5155311644195754 1.0000   
         H         H         1.0       0.9661740337536702  0.6563639022009283  0.5796014625422342 1.0000   
         H         H         1.0       0.9657184511913136  0.6491628509445331  0.5080371823956994 1.0000   
         C         C         1.0       0.14706671535692972           0.7152845482666312 0.7494535220034007 1.0000   
         C         C         1.0       0.16249266953387892           0.7050478185155915 0.7319054803845529 1.0000   
         H         H         1.0       0.14515149219037504           0.7249878556606841 0.7140590464432532 1.0000   
         H         H         1.0       0.15374893381961038           0.722876604857608  0.7863292969704256 1.0000   
         H         H         1.0       0.1734111614173207  0.713193860540101   0.7165281514755484 1.0000   
         H         H         1.0       0.15836252361871272           0.6963432251790475 0.6953401315132437 1.0000   
         C         C         1.0       0.030765239239066933          0.6690843415000488 0.4690076280872914 1.0000   
         C         C         1.0       0.05028722890120618           0.6673916366329361 0.46183441569831124          1.0000   
         H         H         1.0       0.0224425919230562  0.6604508472390364  0.44158407726970783          1.0000   
         H         H         1.0       0.02777570186288192           0.666421290220297  0.5120559837474501 1.0000   
         H         H         1.0       0.05729490937922632           0.6780830232316297 0.48345433703885166          1.0000   
         H         H         1.0       0.053386398282067704          0.6694389932649745 0.41327784781394655          1.0000   
         C         C         1.0       0.01088999304167726           0.6627500176656876 0.27726249669595476          1.0000   
         C         C         1.0       0.9975162713122945  0.649558379710271   0.3034456310283489 1.0000   
         H         H         1.0       0.016273340870009978          0.658361383906634  0.23646723302914335          1.0000   
         H         H         1.0       0.021864798121647544          0.662973355351277  0.3076674697170566 1.0000   
         H         H         1.0       0.9843068794305174  0.6514274263669158  0.2897572998431688 1.0000   
         H         H         1.0       0.9950950846759629  0.6506895992990551  0.3504127454313408 1.0000   
         C         C         1.0       0.04064109950670436           0.7423471414769426 0.004376288103232984         1.0000   
         C         C         1.0       0.037694599977965426          0.7361746280819212 0.941045562748335  1.0000   
         H         H         1.0       0.04623219431713266           0.7558163097944027 0.007013881880907791         1.0000   
         H         H         1.0       0.05217142221425264           0.7365913753974785 0.0264652293094918 1.0000   
         H         H         1.0       0.025810391364496033          0.7282410333666595 0.9340883834161237 1.0000   
         H         H         1.0       0.037613296171717714          0.7468178194253918 0.9065437455357974 1.0000   
         C         C         1.0       0.01700867201359557           0.7851396267132982 0.6002213484497237 1.0000   
         C         C         1.0       0.023881166023112854          0.7764988777691435 0.6553762903025154 1.0000   
         H         H         1.0       0.023421320664598788          0.7977538153698366 0.594583794728047  1.0000   
         H         H         1.0       0.003133835478858815          0.7893680815046917 0.6081997730853244 1.0000   
         H         H         1.0       0.03803920849262443           0.7790913195011916 0.6542585178641737 1.0000   
         H         H         1.0       0.021023271993136028          0.7842183735089282 0.6957248410160425 1.0000   
         C         C         1.0       0.094290203979303   0.7147413893635661  0.36294535772176345          1.0000   
         C         C         1.0       0.10286412858832363           0.713953616038274  0.30166229258424626          1.0000   
         H         H         1.0       0.10248701520739534           0.7217199036436652 0.39208380949879684          1.0000   
         H         H         1.0       0.09281711839073248           0.7019552966462957 0.3837705860514155 1.0000   
         H         H         1.0       0.10811969356211894           0.7265013314658737 0.28680787889079506          1.0000   
         H         H         1.0       0.09305278204489943           0.7099578433649545 0.26874278106253974          1.0000   
         C         C         1.0       0.8360530111819252  0.763332391119807   0.7068801851762526 1.0000   
         C         C         1.0       0.8211378809453026  0.7603841325176212  0.662618862910044  1.0000   
         H         H         1.0       0.8468192336258211  0.7699705772732349  0.6863614304958493 1.0000   
         H         H         1.0       0.8417267019218041  0.7506331808013922  0.7193600594309912 1.0000   
         H         H         1.0       0.8184471078103646  0.7728962453567382  0.643044177273558  1.0000   
         H         H         1.0       0.8258866732167647  0.7524276510918834  0.6245300455691637 1.0000   
         C         C         1.0       0.7353728866179718  0.7084394699442333  0.5718413685901383 1.0000   
         C         C         1.0       0.7271206721785138  0.6975974420150373  0.5240713620326262 1.0000   
         H         H         1.0       0.7412435633951241  0.7002629474442602  0.6054977443684034 1.0000   
         H         H         1.0       0.7261059020279285  0.716708272677937   0.5980611260773637 1.0000   
         H         H         1.0       0.7167311956988041  0.6891295106938755  0.5431278834218041 1.0000   
         H         H         1.0       0.7371898872953224  0.6888654617381971  0.5069319068896351 1.0000   
         C         C         1.0       0.7567895147393955  0.8363953091798098  0.7419482257249147 1.0000   
         C         C         1.0       0.7640854643308806  0.8464678474691867  0.7975912445791038 1.0000   
         H         H         1.0       0.7444176673818909  0.8422057017537752  0.730742017107948  1.0000   
         H         H         1.0       0.7528532605611034  0.8234978528820006  0.7505940415829608 1.0000   
         H         H         1.0       0.7534630902743273  0.8500956965617968  0.8259264287610347 1.0000   
         H         H         1.0       0.7692600341974101  0.859260035446206   0.780527321859055  1.0000   
         C         C         1.0       0.7677230083225516  0.7355815164621058  0.22349040582111362          1.0000   
         C         C         1.0       0.7835686444715431  0.7354270127727293  0.18158081247750552          1.0000   
         H         H         1.0       0.7628296012037528  0.7227142350070371  0.22206814481486198          1.0000   
         H         H         1.0       0.7557913303093584  0.7425483617820201  0.21015000415688836          1.0000   
         H         H         1.0       0.7804105178445723  0.7328986938932746  0.13615895825517216          1.0000   
         H         H         1.0       0.7899857056592439  0.7230177174208233  0.19232814347920318          1.0000   
         C         C         1.0       0.7794492022389656  0.978132656159574   0.6891716945640005 1.0000   
         C         C         1.0       0.7858586780836323  0.9922350322477513  0.6494282902000871 1.0000   
         H         H         1.0       0.7700600746178204  0.9704411155992835  0.6642802818618231 1.0000   
         H         H         1.0       0.7714810592943345  0.9839417696130828  0.7243583882213556 1.0000   
         H         H         1.0       0.7856474296124086  0.9853123056108657  0.6081731775054625 1.0000   
         H         H         1.0       0.7998667649095974  0.9955409969040871  0.6594999663589598 1.0000   
         C         C         1.0       0.7909248389646545  0.8706119212404714  0.1276197461439721 1.0000   
         C         C         1.0       0.7980220676767793  0.8662133458714497  0.18669459216810402          1.0000   
         H         H         1.0       0.7773022949926859  0.8738529833129789  0.13030838718907534          1.0000   
         H         H         1.0       0.791787056739643   0.8595798375643561  0.10034474546672256          1.0000   
         H         H         1.0       0.8072103427248707  0.8763173804311822  0.20216773226838325          1.0000   
         H         H         1.0       0.7877064789059495  0.8661505062012994  0.21736046613260096          1.0000   
         C         C         1.0       0.7746078053785957  0.03128380256091923           0.42302963408183863          1.0000   
         C         C         1.0       0.7766852245375938  0.032619667099838434         0.4902363899747747 1.0000   
         H         H         1.0       0.7868660035359899  0.03611972539717523           0.3999511482119538 1.0000   
         H         H         1.0       0.7753181439364611  0.017153485778213406         0.4101058311568179 1.0000   
         H         H         1.0       0.7668823191000707  0.024245541508109092         0.5108507275409852 1.0000   
         H         H         1.0       0.7740205522098053  0.04497766486201127           0.5114534679565904 1.0000   
         C         C         1.0       0.7942368651972564  0.8813109329778811  0.6658109857517792 1.0000   
         C         C         1.0       0.8024001078621158  0.8712902453336304  0.7175901953410155 1.0000   
         H         H         1.0       0.7877303530031156  0.8707627050605137  0.6410046106443974 1.0000   
         H         H         1.0       0.7841568111051508  0.8904166390208373  0.6818267107000165 1.0000   
         H         H         1.0       0.8129018766583994  0.862143124414759   0.7052992473027946 1.0000   
         H         H         1.0       0.7917893745625691  0.8642366107454856  0.7379259810859757 1.0000   
         C         C         1.0       0.8256153096410207  0.0074289804972453855        0.21405392922651528          1.0000   
         C         C         1.0       0.8107193824997174  0.9986390638466698  0.17940349166780936          1.0000   
         H         H         1.0       0.8227619079923402  0.021334433267871322         0.21461048858304566          1.0000   
         H         H         1.0       0.8372574499239982  0.006547647658883271         0.18707018865163505          1.0000   
         H         H         1.0       0.7992841342095103  0.9967154914322464  0.2060304031021989 1.0000   
         H         H         1.0       0.8071097838151337  0.007895067341867845         0.1449403210772482 1.0000   
         C         C         1.0       0.7957439427698719  0.884156844954871   0.32329328745349534          1.0000   
         C         C         1.0       0.7800331239895094  0.8759972755569796  0.3543764627414467 1.0000   
         H         H         1.0       0.7921768695147504  0.8925417212683302  0.2846121273537998 1.0000   
         H         H         1.0       0.80278806499517    0.873251271269928   0.3046436031151313 1.0000   
         H         H         1.0       0.7733721815261771  0.8687754916345478  0.3213575538928606 1.0000   
         H         H         1.0       0.7702507392439213  0.8847467839529634  0.3710492204970313 1.0000   
         C         C         1.0       0.9535664883451894  0.7107298030529687  0.9215366584547425 1.0000   
         C         C         1.0       0.9707524877750362  0.7020752293087186  0.930532690310997  1.0000   
         H         H         1.0       0.9449636757172487  0.7039942892516552  0.9521229420891864 1.0000   
         H         H         1.0       0.9499644104462907  0.7074984214951018  0.8751675739046264 1.0000   
         H         H         1.0       0.9659223843050155  0.6882143706161784  0.9364563919409276 1.0000   
         H         H         1.0       0.9770196305983373  0.7058243283419403  0.9707846118902486 1.0000   
         C         C         1.0       0.888953450399439   0.8331032582087806  0.5594074496050007 1.0000   
         C         C         1.0       0.8728092275957613  0.8239946623689164  0.5862340594089662 1.0000   
         H         H         1.0       0.8886946118661324  0.8325052356785607  0.5126031366421611 1.0000   
         H         H         1.0       0.8888324020704153  0.8467923037508266  0.569805832088873  1.0000   
         H         H         1.0       0.8719161541118582  0.8266140486953907  0.6323523969632319 1.0000   
         H         H         1.0       0.8744433077840167  0.809424821682716   0.5816267515055136 1.0000   
         C         C         1.0       0.8970580689903657  0.8303836380985131  0.012140433462385802         1.0000   
         C         C         1.0       0.8901482485346144  0.8408082582591814  0.9602644203031121 1.0000   
         H         H         1.0       0.886705647951286   0.8228688038234558  0.0322357771064532 1.0000   
         H         H         1.0       0.902839980852873   0.8394175425726031  0.04375488518189319          1.0000   
         H         H         1.0       0.8885762917370288  0.8545709669605551  0.9767194012374996 1.0000   
         H         H         1.0       0.8998654864992621  0.842224435942669   0.925364844538013  1.0000   
         C         C         1.0       0.9074454505117917  0.7365593240472387  0.18052561087520158          1.0000   
         C         C         1.0       0.9177459700059326  0.7404475971982573  0.12819724267367738          1.0000   
         H         H         1.0       0.9075443697232144  0.7229781535568045  0.1857104235612966 1.0000   
         H         H         1.0       0.8940074057157312  0.7412712887832749  0.17597426719306003          1.0000   
         H         H         1.0       0.9145821232171881  0.7532359533709503  0.11081868317798393          1.0000   
         H         H         1.0       0.9129044954510407  0.7332681688327987  0.09143189483961843          1.0000   
         C         C         1.0       0.018561015621350485          0.8086248357107846 0.03055280244945946          1.0000   
         C         C         1.0       0.025947515286088185          0.8049159163384024 0.09289990111844681          1.0000   
         H         H         1.0       0.018724066348560164          0.8233125478800083 0.020986039105620025         1.0000   
         H         H         1.0       0.029387346924721447          0.8045842189308133 0.0018909711002086382        1.0000   
         H         H         1.0       0.03977937373945806           0.8091448942809811 0.09680813601660132          1.0000   
         H         H         1.0       0.025894418309332368          0.7911329874974197 0.10073955189719386          1.0000   
         C         C         1.0       0.970416681647508   0.7271906775442314  0.5639234203834774 1.0000   
         C         C         1.0       0.9571143049899162  0.7261351373484628  0.6133565288685191 1.0000   
         H         H         1.0       0.9725285999840964  0.713598152998757   0.5512298349670012 1.0000   
         H         H         1.0       0.9826763503239361  0.7308877208386837  0.581793724901337  1.0000   
         H         H         1.0       0.963364998508665   0.7181031026959976  0.6476813992574872 1.0000   
         H         H         1.0       0.9454028451307521  0.7201990968868289  0.5958383282443422 1.0000   
         C         C         1.0       0.903590046134444   0.8255167623465813  0.21213083851062065          1.0000   
         C         C         1.0       0.8972562798105161  0.8073049305730753  0.23203509533397315          1.0000   
         H         H         1.0       0.8972877811793305  0.835007044710465   0.2414924063195587 1.0000   
         H         H         1.0       0.8991035814816415  0.8285882601106062  0.16701920804109438          1.0000   
         H         H         1.0       0.8987988187121532  0.8061618143317503  0.2776147527988971 1.0000   
         H         H         1.0       0.9068204633537758  0.7971345509168525  0.2169989454630057 1.0000   
         C         C         1.0       0.8663516161690559  0.7735865567068397  0.4774521890645113 1.0000   
         C         C         1.0       0.8620325017750801  0.7551036392973359  0.45699944164242207          1.0000   
         H         H         1.0       0.8617553834982554  0.7735600609789214  0.5247826634337289 1.0000   
         H         H         1.0       0.8577014671935287  0.7811831694924695  0.44622398563038895          1.0000   
         H         H         1.0       0.8701907752172101  0.7459085994694111  0.47974534588232576          1.0000   
         H         H         1.0       0.8663090017109365  0.7539012704353273  0.409473941030858  1.0000   
         C         C         1.0       0.9814703013195634  0.004504988138922306         0.9349077260560098 1.0000   
         C         C         1.0       0.9756498353628077  0.022097665624462692         0.9499273451645837 1.0000   
         H         H         1.0       0.9757515514803059  0.9964718450973866  0.9701054339137092 1.0000   
         H         H         1.0       0.995963653799006   0.004223746593993383         0.9387713046549471 1.0000   
         H         H         1.0       0.9763716069734923  0.02358249144606006           0.9988848286210744 1.0000   
         H         H         1.0       0.9616575737321353  0.023694752704639388         0.9425719112632616 1.0000   
         C         C         1.0       0.9258084852605997  0.9120222545333148  0.46593353608971205          1.0000   
         C         C         1.0       0.9144094781914102  0.9150859671372454  0.5195789317049193 1.0000   
         H         H         1.0       0.9239583341859698  0.922427206512343   0.4347985875124513 1.0000   
         H         H         1.0       0.9231341417848213  0.8992527866389618  0.44333010522599703          1.0000   
         H         H         1.0       0.9169859482950675  0.9272976127037139  0.5412203153777704 1.0000   
         H         H         1.0       0.9171653528660079  0.9040789356162667  0.5495008862208045 1.0000   
         C         C         1.0       0.8936774654324117  0.961946404033692   0.6323198954856601 1.0000   
         C         C         1.0       0.8774344209934617  0.9713510071207248  0.6583716607425381 1.0000   
         H         H         1.0       0.8989813469653358  0.9689314067291251  0.5956560311730289 1.0000   
         H         H         1.0       0.8886866197277866  0.9505992678735186  0.608933664920469  1.0000   
         H         H         1.0       0.8672036952298017  0.9751244172856737  0.6244796868339396 1.0000   
         H         H         1.0       0.8814484269126331  0.9838013616137418  0.677694593151381  1.0000   
         C         C         1.0       0.01468464272018366           0.8441288512570226 0.5994752616113869 1.0000   
         C         C         1.0       0.004041634788869208          0.8324487639620446 0.5610928720519003 1.0000   
         H         H         1.0       0.028152967441660293          0.8441448842203169 0.5849307908317266 1.0000   
         H         H         1.0       0.014444802526871525          0.8382513814660714 0.643633534258406  1.0000   
         H         H         1.0       0.012060190197544562          0.8205268221101828 0.5532878200508254 1.0000   
         H         H         1.0       0.003180258872010233          0.8375542922752353 0.5189288034710428 1.0000   
         C         C         1.0       0.00880238282027812           0.06588363778996253          0.2515093177347583 1.0000   
         C         C         1.0       0.9948576006165891  0.07026063484410772           0.300828663859729  1.0000   
         H         H         1.0       0.006779960313337607          0.0760406866487282 0.22036168347542257          1.0000   
         H         H         1.0       0.006688636605764575          0.0531408997410423 0.2275882312019107 1.0000   
         H         H         1.0       0.0006607271128593606         0.07959572018304617          0.3277689207530281 1.0000   
         H         H         1.0       0.9821446157497037  0.07549385436736888           0.28247329681537175          1.0000   
         C         C         1.0       0.8945912911225838  0.9244932055386866  0.26389289537474814          1.0000   
         C         C         1.0       0.8927868098594175  0.922229403582223   0.19790249854448483          1.0000   
         H         H         1.0       0.887417306011895   0.9346387944229986  0.2811720558564006 1.0000   
         H         H         1.0       0.8882411787216057  0.9133562953132585  0.283276194914756  1.0000   
         H         H         1.0       0.8942476993153697  0.9076742210876806  0.19138777300052956          1.0000   
         H         H         1.0       0.9048857328087739  0.9275926717587633  0.1755553246652124 1.0000   
         C         C         1.0       0.9155242043512252  0.029126282879504695         0.5247167782818857 1.0000   
         C         C         1.0       0.9060410577367572  0.015640882994900185         0.5598986100243629 1.0000   
         H         H         1.0       0.9187712363770858  0.03970079202842269           0.5563941426634147 1.0000   
         H         H         1.0       0.9066142409428731  0.03452680322039092           0.4904690443103961 1.0000   
         H         H         1.0       0.9143230779344061  0.004026840331748938         0.561713072323456  1.0000   
         H         H         1.0       0.9061431803018144  0.01821296366022107           0.6073275020830897 1.0000   
         C         C         1.0       0.968358576326502   0.9398680659622313  0.037631224718256195         1.0000   
         C         C         1.0       0.9578129705953221  0.9247972869774963  0.012882023781042307         1.0000   
         H         H         1.0       0.9821548859811848  0.9396623210988202  0.027818215841137528         1.0000   
         H         H         1.0       0.9646554602092262  0.9520602268176657  0.020021911055240427         1.0000   
         H         H         1.0       0.945129605544247   0.9240590706614571  0.03549234374591759          1.0000   
         H         H         1.0       0.9651673107179113  0.9129077566699076  0.01676197169919158          1.0000   
         C         C         1.0       0.04141872940771907           0.9790978073454887 0.5434554738173814 1.0000   
         C         C         1.0       0.049022106712190094          0.961756973742541  0.5177565807525557 1.0000   
         H         H         1.0       0.03881476773767134           0.9796968781753064 0.591686430228086  1.0000   
         H         H         1.0       0.051378381259370665          0.9885608535967922 0.5337998591857424 1.0000   
         H         H         1.0       0.06182281186505434           0.9587745719902999 0.5329497424688344 1.0000   
         H         H         1.0       0.04996910562350476           0.9640618545644906 0.4709731055599204 1.0000   
         C         C         1.0       0.01588648444821783           0.8907026566200067 0.3985488961622797 1.0000   
         C         C         1.0       0.021530087757329897          0.8769966048275802 0.3558190504781833 1.0000   
         H         H         1.0       0.027165397020679327          0.8962711791720893 0.4171442404685696 1.0000   
         H         H         1.0       0.010396607501248045          0.8833840460498907 0.43245343472043046          1.0000   
         H         H         1.0       0.03341425689640132           0.8696934996949341 0.37094553139567443          1.0000   
         H         H         1.0       0.02649570051344563           0.883612603817008  0.31591543864752514          1.0000   
         C         C         1.0       0.9727631364842991  0.5053004366141163  0.5022580374695996 1.0000   
         C         C         1.0       0.9756082333513052  0.5223679739158525  0.46637341412634853          1.0000   
         H         H         1.0       0.979987358030944   0.5058873911786899  0.5405438728973265 1.0000   
         H         H         1.0       0.9787537506854129  0.494063433937506   0.4785822929288612 1.0000   
         H         H         1.0       0.9646905733454475  0.5252709041872052  0.439387092066126  1.0000   
         H         H         1.0       0.9858548973236267  0.5192258152506629  0.4349222885558036 1.0000   
         C         C         1.0       0.9627881777552466  0.5387397182173191  0.30799485362582035          1.0000   
         C         C         1.0       0.946636086982734   0.5485936231415353  0.3068335706549912 1.0000   
         H         H         1.0       0.9611435681161337  0.5335830887172726  0.351473775179173  1.0000   
         H         H         1.0       0.9608060521524442  0.5286593629455818  0.2764428094159703 1.0000   
         H         H         1.0       0.947799438963491   0.5630128588642616  0.29833767196488936          1.0000   
         H         H         1.0       0.9428246637130663  0.5521130051733598  0.35035255260921105          1.0000   
         C         C         1.0       0.869095532453576   0.5305290525541966  0.8910765040548553 1.0000   
         C         C         1.0       0.8806837379576443  0.5405529601524431  0.9391880114642671 1.0000   
         H         H         1.0       0.856056841205838   0.5288868882195353  0.9138420487137718 1.0000   
         H         H         1.0       0.8679727626766056  0.5396144999063853  0.8555481079228278 1.0000   
         H         H         1.0       0.8769039829368366  0.5546407733577127  0.940215800813167  1.0000   
         H         H         1.0       0.8936516791442984  0.5419559389540088  0.9239578579439606 1.0000   
         C         C         1.0       0.8993316375201951  0.41610980465477054           0.3900162982948817 1.0000   
         C         C         1.0       0.890344660862141   0.4166197874648005  0.4465553293752529 1.0000   
         H         H         1.0       0.9128453425392282  0.42124498801576327           0.3946665740284485 1.0000   
         H         H         1.0       0.9004018881910547  0.40225171167327567           0.3800972020596142 1.0000   
         H         H         1.0       0.8958731246998419  0.4054825256077166  0.4675331098191668 1.0000   
         H         H         1.0       0.8766225862641209  0.41450875333978676           0.43843984828069316          1.0000   
         C         C         1.0       0.9909723273905031  0.2685394727955863  0.5132142203083224 1.0000   
         C         C         1.0       0.9805491320516209  0.25232135721322557           0.5259943118866911 1.0000   
         H         H         1.0       0.999551705355597   0.2663730942824534  0.47331774462419357          1.0000   
         H         H         1.0       0.0005242589207565818         0.27085824607157666          0.5484950524066469 1.0000   
         H         H         1.0       0.9660655627253592  0.2553510183861634  0.531351925737191  1.0000   
         H         H         1.0       0.9779170424439592  0.24469017192486575           0.4867071278997808 1.0000   
         C         C         1.0       0.9605515346930902  0.4334993894529704  0.8657547344605663 1.0000   
         C         C         1.0       0.9686222447782806  0.4295865317978335  0.8064735875561898 1.0000   
         H         H         1.0       0.9693932418057489  0.4413648834937185  0.8955057061388937 1.0000   
         H         H         1.0       0.9592598727149828  0.42058033845631    0.8887334153067918 1.0000   
         H         H         1.0       0.9832181889463988  0.43115057263239737           0.8081897447055013 1.0000   
         H         H         1.0       0.9660868317525669  0.44009598706747893           0.7731826568401843 1.0000   
         C         C         1.0       0.9641161616020241  0.24350071499433007           0.2782704699721916 1.0000   
         C         C         1.0       0.9812640397974334  0.2540467347132177  0.27419430935313116          1.0000   
         H         H         1.0       0.9619164525904645  0.24122842360762084           0.32311019243120986          1.0000   
         H         H         1.0       0.9676787922020093  0.2312118585009644  0.26041568148366423          1.0000   
         H         H         1.0       0.9800335401215509  0.2646600007651362  0.30690970927219663          1.0000   
         H         H         1.0       0.9836657080327115  0.26149338054773863           0.23285614729626136          1.0000   
         C         C         1.0       0.9623199729897887  0.3037897236734682  0.8777385560420793 1.0000   
         C         C         1.0       0.9482890137871041  0.28902700976654294           0.8860061972864154 1.0000   
         H         H         1.0       0.9653362172273765  0.30880988507805124           0.9222571183922321 1.0000   
         H         H         1.0       0.9753557147445416  0.2998388453010607  0.862674948524115  1.0000   
         H         H         1.0       0.9512214208779828  0.27516747370546896           0.8724626424779296 1.0000   
         H         H         1.0       0.9372464799147247  0.29046706468274686           0.8533486272035571 1.0000   
         C         C         1.0       0.9850880430416165  0.3821200461419879  0.28464326674179385          1.0000   
         C         C         1.0       0.9829847562403766  0.38980054868600644           0.3459495452943158 1.0000   
         H         H         1.0       0.9923420569178582  0.3704790581701355  0.2844230079420053 1.0000   
         H         H         1.0       0.9922161052563678  0.39115332515787127           0.2580886901649311 1.0000   
         H         H         1.0       0.9752461143383663  0.40096727240008934           0.3405196959209181 1.0000   
         H         H         1.0       0.9958589820170455  0.3939751299668856  0.3551460470178339 1.0000   
         C         C         1.0       0.9211153759122404  0.4167849349605653  0.9836279988259742 1.0000   
         C         C         1.0       0.9169904977408722  0.39832105769180465           0.9644960745606072 1.0000   
         H         H         1.0       0.9214353744568213  0.42480098086147744           0.9412027242424867 1.0000   
         H         H         1.0       0.9337444755075706  0.41644627787838917           0.0016102159504984837        1.0000   
         H         H         1.0       0.9242386496551477  0.39491569764584994           0.9258406459969941 1.0000   
         H         H         1.0       0.9042520356711937  0.39931422758484847           0.9432851086261406 1.0000   
         C         C         1.0       0.7481902636426996  0.5727553972309214  0.0899979552202963 1.0000   
         C         C         1.0       0.7308353338892829  0.5782770914895171  0.06410938401519095          1.0000   
         H         H         1.0       0.7481743449756124  0.5790211323918039  0.13388383217593924          1.0000   
         H         H         1.0       0.7585777186475512  0.578761415618818   0.06595115525290351          1.0000   
         H         H         1.0       0.7211090441757969  0.573561981067817   0.09304125470003899          1.0000   
         H         H         1.0       0.7293628564806864  0.5916952012785679  0.06901505749840897          1.0000   
         C         C         1.0       0.8326116128280002  0.40914840860464347           0.9082677373893311 1.0000   
         C         C         1.0       0.8470896198551704  0.4051284631790168  0.8607104727939723 1.0000   
         H         H         1.0       0.8246747545830996  0.3972939740857295  0.9103227034280096 1.0000   
         H         H         1.0       0.8380718527304046  0.41029681316144156           0.953677405933203  1.0000   
         H         H         1.0       0.8398338609384677  0.40354527674569746           0.8229110365856364 1.0000   
         H         H         1.0       0.8541858108606576  0.39452166839097413           0.8719832406789297 1.0000   
         C         C         1.0       0.8151328009676362  0.5169279751189603  0.29592322798476545          1.0000   
         C         C         1.0       0.8211002998723878  0.5366071985143098  0.2943603863864659 1.0000   
         H         H         1.0       0.8091413900776878  0.5138174152915804  0.33755291134712473          1.0000   
         H         H         1.0       0.8262549843647432  0.5072404857743521  0.29063051453761934          1.0000   
         H         H         1.0       0.812555908303961   0.5446873581843474  0.2656474291307793 1.0000   
         H         H         1.0       0.8198499258985721  0.5433510423479092  0.33626974436005197          1.0000   
         C         C         1.0       0.7297111453090657  0.5453590287550885  0.32706947959341753          1.0000   
         C         C         1.0       0.7284464132875924  0.5641269649757665  0.31045962220649337          1.0000   
         H         H         1.0       0.7314768316712931  0.5378347034446326  0.28797579280758123          1.0000   
         H         H         1.0       0.7174555400772586  0.5399072194013543  0.340268545865369  1.0000   
         H         H         1.0       0.7329444437824575  0.5719660729731373  0.3480705132304924 1.0000   
         H         H         1.0       0.737961127406749   0.5673514255686477  0.2743102395027966 1.0000   
         C         C         1.0       0.769771631466086   0.5381231058410155  0.7429969288685715 1.0000   
         C         C         1.0       0.7820241064569147  0.5309445468829386  0.7843957185417076 1.0000   
         H         H         1.0       0.7705005449120009  0.5520474942544751  0.748456524822494  1.0000   
         H         H         1.0       0.7555233031769352  0.534579493373967   0.7585413602810047 1.0000   
         H         H         1.0       0.7830094460413154  0.5381630223898097  0.8243663279453093 1.0000   
         H         H         1.0       0.7942706727182729  0.5321433303270132  0.7624292658543755 1.0000   
         C         C         1.0       0.7060544811283532  0.45473160409523455           0.2723469417173633 1.0000   
         C         C         1.0       0.7101836417558897  0.4501067249157233  0.20759006077233266          1.0000   
         H         H         1.0       0.6994001632467176  0.46739006139355593           0.27505202214208874          1.0000   
         H         H         1.0       0.6954260470872748  0.4460728930622367  0.2921605351717248 1.0000   
         H         H         1.0       0.6966279382358732  0.4505012714741766  0.18720547141096988          1.0000   
         H         H         1.0       0.7152616001946925  0.4364842978990411  0.2014374312043893 1.0000   
         C         C         1.0       0.8041132182080333  0.42171313835664515           0.13487828294956403          1.0000   
         C         C         1.0       0.7906953052626086  0.4346120565848748  0.15989260893495147          1.0000   
         H         H         1.0       0.8009742313464262  0.40891226015345167           0.14971582017623422          1.0000   
         H         H         1.0       0.8014039643990332  0.419826821448801   0.08725724656715217          1.0000   
         H         H         1.0       0.7772122240416329  0.43080608720804253           0.15397485341350609          1.0000   
         H         H         1.0       0.790068359388254   0.4463174931128067  0.1343910335895364 1.0000   
         C         C         1.0       0.8529650662258245  0.5550133310271214  0.5091298341083373 1.0000   
         C         C         1.0       0.8675150449961342  0.5466611874327606  0.47812990354174467          1.0000   
         H         H         1.0       0.8522013213106915  0.5683032295822442  0.4922308523701031 1.0000   
         H         H         1.0       0.8567595528232196  0.5552035744145928  0.5543694098871659 1.0000   
         H         H         1.0       0.8615171543216005  0.543271884890548   0.4361723418270911 1.0000   
         H         H         1.0       0.8771060462237533  0.5564000073375295  0.46999555030829804          1.0000   
         C         C         1.0       0.7485654763174802  0.258317724923196   0.023695072804464035         1.0000   
         C         C         1.0       0.7610749565378758  0.24267705245139587           0.02752231487980339          1.0000   
         H         H         1.0       0.7435303153612164  0.2582528801641731  0.9776521708392643 1.0000   
         H         H         1.0       0.7370380038747398  0.25687627070517627           0.05153448239115854          1.0000   
         H         H         1.0       0.7617704002686675  0.23819844806991244           0.0733202325229958 1.0000   
         H         H         1.0       0.7740604272714467  0.2466055842040975  0.018991194591017724         1.0000   
         C         C         1.0       0.8675001099122737  0.36846129663373334           0.7731236163696523 1.0000   
         C         C         1.0       0.8554595009778603  0.369499132093255   0.7165961925896682 1.0000   
         H         H         1.0       0.8652413376619829  0.3597077702451756  0.8059966711487245 1.0000   
         H         H         1.0       0.8674381248945646  0.3819688059170804  0.7918546996169035 1.0000   
         H         H         1.0       0.8592680901680995  0.35976332162628644           0.6841904079938095 1.0000   
         H         H         1.0       0.8572576824585968  0.38218612023598536           0.6983711929524921 1.0000   
         C         C         1.0       0.8431809019904668  0.299316836540024   0.14605709178390702          1.0000   
         C         C         1.0       0.847450616940909   0.2799513295151864  0.13391418831396162          1.0000   
         H         H         1.0       0.8532910757152322  0.30623259055954094           0.12982854209586825          1.0000   
         H         H         1.0       0.8421600513896124  0.30300004903563116           0.1915430503795008 1.0000   
         H         H         1.0       0.841992144911034   0.27574824166108425           0.09173224996485452          1.0000   
         H         H         1.0       0.8401994011106512  0.27260539516632837           0.16793879019711921          1.0000   
         C         C         1.0       0.7278079739934493  0.39884412121542534           0.8353779937232473 1.0000   
         C         C         1.0       0.7232476349703283  0.4175494444735594  0.8178145954389109 1.0000   
         H         H         1.0       0.716412252533799   0.3919252565356776  0.8224070163313226 1.0000   
         H         H         1.0       0.7274322534232226  0.3980596907401916  0.8846101599528043 1.0000   
         H         H         1.0       0.7098120147758364  0.4202222802324711  0.8380877676720748 1.0000   
         H         H         1.0       0.7203655428270782  0.417790873730677   0.7723836105418699 1.0000   
         C         C         1.0       0.7776913358176019  0.2524320407912025  0.19318472393977176          1.0000   
         C         C         1.0       0.7574997964565113  0.2515788310446909  0.192596016046581  1.0000   
         H         H         1.0       0.7813399118209587  0.25925688162334154           0.15237335044092742          1.0000   
         H         H         1.0       0.7832863238369933  0.23979432193893352           0.19380231765184827          1.0000   
         H         H         1.0       0.7518237417062837  0.2623317203617875  0.21626495184963287          1.0000   
         H         H         1.0       0.7535316808520843  0.25545762966166535           0.14947986392942855          1.0000   
         C         C         1.0       0.8503132448528987  0.391252751269762   0.28878668950357306          1.0000   
         C         C         1.0       0.8654697951601739  0.3833936537045496  0.3236129474848648 1.0000   
         H         H         1.0       0.8510607642462509  0.40513645776945856           0.28603231765917814          1.0000   
         H         H         1.0       0.8523035694232015  0.38676365878472296           0.24347827025236668          1.0000   
         H         H         1.0       0.8607956522024357  0.3731370475148824  0.3497565888127027 1.0000   
         H         H         1.0       0.8709512026280073  0.39310764675044574           0.35395029585890825          1.0000   
         C         C         1.0       0.8851216357005093  0.2954426023040027  0.3606847788369823 1.0000   
         C         C         1.0       0.8881206901789701  0.3127495916437611  0.3930811846035123 1.0000   
         H         H         1.0       0.8907594536705673  0.29461623413102334           0.31600021185289223          1.0000   
         H         H         1.0       0.8916846887645711  0.2854215937629955  0.3858186582343443 1.0000   
         H         H         1.0       0.8784033113720151  0.3126282796635609  0.4280974854760018 1.0000   
         H         H         1.0       0.8844175007615214  0.3235533549398948  0.36597486862201617          1.0000   
         C         C         1.0       0.7698934109785698  0.29492467477563394           0.6299916606525618 1.0000   
         C         C         1.0       0.7842859809840727  0.2808259138505132  0.6226915502268612 1.0000   
         H         H         1.0       0.7573081202947527  0.28873398152574703           0.6429647518602363 1.0000   
         H         H         1.0       0.768253997872936   0.3008520098988357  0.5858383357776613 1.0000   
         H         H         1.0       0.7939979988449113  0.28390963303039357           0.6559624914579691 1.0000   
         H         H         1.0       0.7785791368714488  0.26823757463683184           0.6314516387303839 1.0000   
         C         C         1.0       0.7381605530493014  0.38141231283176297           0.1931134777750566 1.0000   
         C         C         1.0       0.7451090886775323  0.38640011808011293           0.13381801194972587          1.0000   
         H         H         1.0       0.7283742291766174  0.3912070076664436  0.20655252571379082          1.0000   
         H         H         1.0       0.7301341578527041  0.37057501396678005           0.1856157137967278 1.0000   
         H         H         1.0       0.7549956862968036  0.39703399939077616           0.13300524600333086          1.0000   
         H         H         1.0       0.7358883857243762  0.39128347072775915           0.10340169329648097          1.0000   
         C         C         1.0       0.7799066684449691  0.41044974704178944           0.6070599147852199 1.0000   
         C         C         1.0       0.770846357081924   0.39290902441535874           0.6092332198170921 1.0000   
         H         H         1.0       0.79324973863106    0.40787241344627206           0.6209007099119944 1.0000   
         H         H         1.0       0.7750334787739916  0.4191740248503882  0.641369691710646  1.0000   
         H         H         1.0       0.7572527394540742  0.3943309715830788  0.6179276377197946 1.0000   
         H         H         1.0       0.7764178226679493  0.38662045273213913           0.6466603439306405 1.0000

