data_0
_chemical_formula_structural 
                                        C6H4C38H24C6H4C38H24C6H4C38H24C6H4C38H24C6H4C38H24C6H4C38H24C6H4C38H24C6H4C38H24C6H4C38H24C6H4C38H24C6H4C38H24C6H4C38H24C6H4C38H24C6H4C38H24C6H4C38H24C6H4C38H24C6H4C38H24C6H4C38H24C6H4C38H24C6H4C38H24C6H4C38H24C6H4C38H24C6H4C38H24C6H4C38H24C6H4C38H24C6H4C38H24C6H4C38H24C6H4C38H24C6H4C38H24C6H4C38H24C6H4C38H24C6H4C38H24C6H4C38H24C6H4C38H24C6H4C38H24C6H4C38H24C6H4C38H24C6H4C38H24C6H4C38H24C6H4C38H24C6H4C38H24C6H4C38H24C6H4C38H24C6H4C38H24C6H4C38H24C6H4C38H24C6H4C38H24C6H4C38H24C6H4C38H24C6H4C38H24C6H4C38H24C6H4C38H24C6H4C38H24C6H4C38H24C6H4C38H24C6H4C38H24C6H4C38H24C6H4C38H24C6H4C38H24C6H4C38H24C6H4C38H24C6H4C38H24C6H4C38H24C6H4C38H24C2H4C2H4C2H4C2H4C2H4C2H4C2H4C2H4C2H4C2H4C2H4C2H4C2H4C2H4C2H4C2H4C2H4C2H4C2H4C2H4C2H4C2H4C2H4C2H4C2H4C2H4C2H4C2H4C2H4C2H4C2H4C2H4C2H4C2H4C2H4C2H4C2H4C2H4C2H4C2H4C2H4C2H4C2H4C2H4C2H4C2H4C2H4C2H4C2H4C2H4C2H4C2H4C2H4C2H4C2H4C2H4C2H4C2H4C2H4C2H4C2H4C2H4C2H4C2H4C2H4C2H4C2H4C2H4C2H4C2H4C2H4C2H4C2H4C2H4C2H4C2H4C2H4C2H4C2H4C2H4C2H4C2H4C2H4C2H4C2H4C2H4C2H4C2H4C2H4C2H4C2H4C2H4C2H4C2H4C2H4C2H4C2H4C2H4C2H4C2H4C2H4C2H4C2H4C2H4C2H4C2H4C2H4C2H4C2H4C2H4C2H4C2H4C2H4C2H4C2H4C2H4C2H4C2H4C2H4C2H4C2H4C2H4C2H4C2H4C2H4C2H4C2H4C2H4C2H4C2H4C2H4C2H4C2H4C2H4C2H4C2H4C2H4C2H4C2H4C2H4C2H4C2H4C2H4C2H4C2H4C2H4C2H4C2H4C2H4C2H4C2H4C2H4C2H4C2H4C2H4C2H4C2H4C2H4C2H4C2H4C2H4C2H4C2H4C2H4C2H4C2H4C2H4C2H4C2H4C2H4C2H4C2H4C2H4C2H4C2H4C2H4C2H4C2H4C2H4C2H4C2H4C2H4C2H4C2H4C2H4C2H4C2H4C2H4C2H4C2H4C2H4C2H4
_chemical_formula_sum                   'C3200 H2560'
_cell_length_a                          78.9243621018195
_cell_length_b                          79.36558153255848
_cell_length_c                          23.620808128752
_cell_angle_alpha                       90.07497032363227
_cell_angle_beta                        89.97513394558497
_cell_angle_gamma                       90.16325096194788
_space_group_name_H-M_alt               'P 1'
_space_group_IT_number                  1
loop_
  _space_group_symop_operation_xyz
         'x, y, z' 
loop_
  _atom_site_type_symbol
  _atom_site_label
  _atom_site_symmetry_multiplicity
  _atom_site_fract_x
  _atom_site_fract_y
  _atom_site_fract_z
  _atom_site_occupancy
         C         C         1.0       0.7753469281569428  0.3283553388049132  0.4418871188296296 1.0000   
         C         C         1.0       0.7630217583611328  0.32107376785216835           0.40835860556951276          1.0000   
         C         C         1.0       0.7678646822215489  0.31141943251808796           0.36059189655052004          1.0000   
         C         C         1.0       0.7850818162012314  0.30919348103862965           0.3490220679696515 1.0000   
         C         C         1.0       0.7965753080429309  0.31535026180634484           0.3876578298641039 1.0000   
         C         C         1.0       0.7917677694745762  0.32405196620817633           0.4340498008871119 1.0000   
         H         H         1.0       0.7497861987333431  0.3242488310989338  0.4113222728529263 1.0000   
         H         H         1.0       0.7577085953948274  0.30587063848733775           0.3352066835850779 1.0000   
         H         H         1.0       0.8094827230643988  0.3138128321230062  0.38681450359960773          1.0000   
         H         H         1.0       0.8011840948467597  0.32829916108825613           0.4634384885421712 1.0000   
         C         C         1.0       0.8145624871269128  0.32193662415477403           0.2726260341595076 1.0000   
         C         C         1.0       0.8088204537923108  0.3052868087265372  0.26899435219003914          1.0000   
         C         C         1.0       0.8198023304616636  0.2932138532567459  0.25039387406428476          1.0000   
         C         C         1.0       0.8367838010411193  0.29662359476711486           0.24425346371585382          1.0000   
         C         C         1.0       0.8426222218595376  0.3132081408986876  0.2501241983670026 1.0000   
         C         C         1.0       0.8308899287801459  0.3262065541024144  0.2574532326345425 1.0000   
         C         C         1.0       0.7913053453436006  0.29936349041700927           0.294506424616553  1.0000   
         C         C         1.0       0.7801500154776675  0.304440089892465   0.24188508985790375          1.0000   
         C         C         1.0       0.7763537200556664  0.2926217680797566  0.19984994957293634          1.0000   
         C         C         1.0       0.7654560104411883  0.29666149432976563           0.15626805563538396          1.0000   
         C         C         1.0       0.7602569893111691  0.3129312538878779  0.1487745883531484 1.0000   
         C         C         1.0       0.7660248940950043  0.3252691311094553  0.18439745386916107          1.0000   
         C         C         1.0       0.7749797926815621  0.3206904085917405  0.23228124900970118          1.0000   
         C         C         1.0       0.8041425465839362  0.2735233196283946  0.3466433024963412 1.0000   
         C         C         1.0       0.8018112541678063  0.2598541709745801  0.38024224628526576          1.0000   
         C         C         1.0       0.7867178118805628  0.2513395032577296  0.37812896585876776          1.0000   
         C         C         1.0       0.7737500437266344  0.25742443786698815           0.3435300475258109 1.0000   
         C         C         1.0       0.7756348116882967  0.2723949939560681  0.314601020004303  1.0000   
         C         C         1.0       0.7906853574251301  0.2808482633158156  0.3188627489846797 1.0000   
         C         C         1.0       0.7805447447732149  0.2389318944086283  0.4280135532525612 1.0000   
         C         C         1.0       0.827907728278141   0.22270201192483902           0.5018953297549823 1.0000   
         C         C         1.0       0.8146528071289942  0.22728705857577236           0.5378603895284375 1.0000   
         C         C         1.0       0.7992355542120203  0.2300247478609722  0.5168827871555122 1.0000   
         C         C         1.0       0.7960138924280779  0.22985405859344663           0.4583872589131689 1.0000   
         C         C         1.0       0.8077886836154511  0.22100087329623047           0.42597515979763717          1.0000   
         C         C         1.0       0.8242945135087817  0.219431616019034   0.4457729337523997 1.0000   
         C         C         1.0       0.7702060032450537  0.2221052243985441  0.40880652293236464          1.0000   
         C         C         1.0       0.7722300704142077  0.21680610705043143           0.35380614153898177          1.0000   
         C         C         1.0       0.7617893259226347  0.20525277771785086           0.32907741577579736          1.0000   
         C         C         1.0       0.7500374504412815  0.19642068496273754           0.3614076488676384 1.0000   
         C         C         1.0       0.7491922295281035  0.19969536135199226           0.4192427503671186 1.0000   
         C         C         1.0       0.7595451909436528  0.2120159413137908  0.44323940545398627          1.0000   
         C         C         1.0       0.7524762448133028  0.2528175773858145  0.4590420638054796 1.0000   
         C         C         1.0       0.7444115530632733  0.26706227519558645           0.4739288189593915 1.0000   
         C         C         1.0       0.7537525882197963  0.28021647975076697           0.49844655716857383          1.0000   
         C         C         1.0       0.7710445967321891  0.2790861279339542  0.5056668200972707 1.0000   
         C         C         1.0       0.7791237395251381  0.2639689543209658  0.49350217904529664          1.0000   
         C         C         1.0       0.7705004822204484  0.2512977986062456  0.4675927357270907 1.0000   
         H         H         1.0       0.8054633268989253  0.3315818237546865  0.2828966429034386 1.0000   
         H         H         1.0       0.8160600631765161  0.28119071651774724           0.23798085819366555          1.0000   
         H         H         1.0       0.8454175943705453  0.2872164999103196  0.230848063277892  1.0000   
         H         H         1.0       0.8350524768657797  0.3395585269446066  0.25544172244892743          1.0000   
         H         H         1.0       0.7817584950101466  0.27965919579534027           0.201879580143394  1.0000   
         H         H         1.0       0.7623298758380233  0.28681832751528463           0.1294124719669767 1.0000   
         H         H         1.0       0.764525980649951   0.33839415141561746           0.17140852597096215          1.0000   
         H         H         1.0       0.7787498730804213  0.33049727721993877           0.2608256525752711 1.0000   
         H         H         1.0       0.8156139947134515  0.28069462535860723           0.3532425066693685 1.0000   
         H         H         1.0       0.811681789228646   0.2555669467649424  0.41096376214098684          1.0000   
         H         H         1.0       0.7611796630196425  0.2522187347078106  0.342992208169346  1.0000   
         H         H         1.0       0.7655721718174152  0.2786664706987803  0.29647535654368884          1.0000   
         H         H         1.0       0.8176532251595047  0.22959765088567066           0.582117394871359  1.0000   
         H         H         1.0       0.7897473236170331  0.2343909840135593  0.5450229497295487 1.0000   
         H         H         1.0       0.8047835959779931  0.21957600319063705           0.3823484899289498 1.0000   
         H         H         1.0       0.8336828659137662  0.2166774214703541  0.41577939604597897          1.0000   
         H         H         1.0       0.7807316004035324  0.22186074623883129           0.32450150052223736          1.0000   
         H         H         1.0       0.7619141167172858  0.20282750778178207           0.2857758779760466 1.0000   
         H         H         1.0       0.7396656896629861  0.19294552442267277           0.44291748708170225          1.0000   
         H         H         1.0       0.7594919588620478  0.2149150028887996  0.4864050318684021 1.0000   
         H         H         1.0       0.7464051355200999  0.2438811098788343  0.4302887696485461 1.0000   
         H         H         1.0       0.7310787312879364  0.26939317856823153           0.46505138000125923          1.0000   
         H         H         1.0       0.7786686303285049  0.2889076769270655  0.5224024209063349 1.0000   
         H         H         1.0       0.7927048787068607  0.26315443008181455           0.4972974701697873 1.0000   
         C         C         1.0       0.7727161933556729  0.3439421190593031  0.8832475309956971 1.0000   
         C         C         1.0       0.7595136781559909  0.33535082604346006           0.8566198632969492 1.0000   
         C         C         1.0       0.7628106340399992  0.32212794374004233           0.8214345577756487 1.0000   
         C         C         1.0       0.7791987560150099  0.3191596243749214  0.8025421567099337 1.0000   
         C         C         1.0       0.7927579484038348  0.32724120296083004           0.8313803720046509 1.0000   
         C         C         1.0       0.7897402215854356  0.3392096734749274  0.8740905287187403 1.0000   
         H         H         1.0       0.7457444062281917  0.3384689698958413  0.8610672731185904 1.0000   
         H         H         1.0       0.7521129723215516  0.31547973334825735           0.80087484465376   1.0000   
         H         H         1.0       0.804660788820726   0.32242093083773393           0.8191201228145697 1.0000   
         H         H         1.0       0.7991636315871445  0.34443940693068487           0.9026502370612354 1.0000   
         C         C         1.0       0.8048219475674194  0.32679988667075055           0.707263212579745  1.0000   
         C         C         1.0       0.799358048557341   0.3098764055891476  0.7187266265006095 1.0000   
         C         C         1.0       0.8078803388399027  0.2962348931277148  0.6917050997800178 1.0000   
         C         C         1.0       0.8239828029508306  0.2995596534674632  0.668815024329023  1.0000   
         C         C         1.0       0.8293215589881532  0.31595238562436156           0.6652551641861073 1.0000   
         C         C         1.0       0.8194143376700631  0.3294124334452696  0.6798509347106054 1.0000   
         C         C         1.0       0.7826667185862124  0.3053777800375188  0.7555574924688091 1.0000   
         C         C         1.0       0.7689660409789445  0.3033311971346803  0.7082128629704275 1.0000   
         C         C         1.0       0.7638448392525765  0.2878566099577642  0.6882033098779264 1.0000   
         C         C         1.0       0.7524978598115121  0.28634748364894513           0.6455086342666252 1.0000   
         C         C         1.0       0.7451407647442945  0.29970953028295916           0.6194833671076276 1.0000   
         C         C         1.0       0.7498700749274826  0.31540693465307346           0.6378293634209835 1.0000   
         C         C         1.0       0.7616335283892899  0.3171994112321942  0.6813387362902767 1.0000   
         C         C         1.0       0.799870746962922   0.28780840176536865           0.8225765576461546 1.0000   
         C         C         1.0       0.8017323868624875  0.2764104566639778  0.8644558677262052 1.0000   
         C         C         1.0       0.7880455750238463  0.2664569064858617  0.8834800300544677 1.0000   
         C         C         1.0       0.7735115041216734  0.26661551718463855           0.8530618149307866 1.0000   
         C         C         1.0       0.7714238671538143  0.27920352313992974           0.8141928785547549 1.0000   
         C         C         1.0       0.7845850727186943  0.2897542980706928  0.79725225624247   1.0000   
         C         C         1.0       0.787952886576283   0.2575856845526323  0.9444198786047505 1.0000   
         C         C         1.0       0.8375133974466744  0.24140143629838973           0.9968406187046229 1.0000   
         C         C         1.0       0.8258409890109886  0.24715749470598408           0.03649810408834586          1.0000   
         C         C         1.0       0.8098445526516203  0.25138725030030956           0.02029333767990993          1.0000   
         C         C         1.0       0.8048610179605997  0.24997239487611064           0.9656933690217809 1.0000   
         C         C         1.0       0.8158430719022979  0.24343971206132192           0.9251749625006415 1.0000   
         C         C         1.0       0.8318378087347837  0.2392486378091355  0.9410834707657945 1.0000   
         C         C         1.0       0.7759799017846736  0.24026330824162048           0.9460181839207465 1.0000   
         C         C         1.0       0.7746396864104373  0.2288913701320886  0.9001239112897527 1.0000   
         C         C         1.0       0.7637544350928613  0.21544655604172827           0.9007227789652851 1.0000   
         C         C         1.0       0.7548321867198405  0.2116066455028634  0.9476728008698122 1.0000   
         C         C         1.0       0.755658849551198   0.22187074242918567           0.9948449222741864 1.0000   
         C         C         1.0       0.7670940361178753  0.23555929769304962           0.9934020186611922 1.0000   
         C         C         1.0       0.7628409332225917  0.2758241720008449  0.9800977468941745 1.0000   
         C         C         1.0       0.7563753287233053  0.2910354265793522  0.9975924604803277 1.0000   
         C         C         1.0       0.7678838713529281  0.3036065554054397  0.017719256701674846         1.0000   
         C         C         1.0       0.7854627044954757  0.30103858483628093           0.01651044008823499          1.0000   
         C         C         1.0       0.791607868816826   0.2858562634282241  0.9934708491388944 1.0000   
         C         C         1.0       0.780287985728641   0.27299490079026045           0.9784476198316855 1.0000   
         H         H         1.0       0.797747145997719   0.33693612164228276           0.72528384465346   1.0000   
         H         H         1.0       0.8014430281392679  0.2845059247453003  0.6901986631307291 1.0000   
         H         H         1.0       0.8318092283161015  0.28966145366822277           0.6508297587326946 1.0000   
         H         H         1.0       0.8231756807990281  0.3423973853166993  0.6789128981283229 1.0000   
         H         H         1.0       0.7700337301734872  0.27687438586920304           0.7053519214905466 1.0000   
         H         H         1.0       0.7509629890919101  0.2735756799466542  0.6297416456470831 1.0000   
         H         H         1.0       0.7448897842848721  0.32735094317359714           0.6181539428076389 1.0000   
         H         H         1.0       0.765198433703341   0.32885326275487553           0.6922380679750911 1.0000   
         H         H         1.0       0.8103089708464221  0.2952371154577527  0.8115739993037911 1.0000   
         H         H         1.0       0.8125143754596833  0.27811788065408577           0.8940798499929097 1.0000   
         H         H         1.0       0.763105788740085   0.2589265504073926  0.8679250141937694 1.0000   
         H         H         1.0       0.758272783763247   0.2807160037956516  0.8007838604570536 1.0000   
         H         H         1.0       0.8302997973360503  0.25094047223160854           0.07955829213443621          1.0000   
         H         H         1.0       0.8016995501990806  0.25464983956005777           0.05547008300617917          1.0000   
         H         H         1.0       0.8130331975968029  0.24122984235984024           0.8803981869251694 1.0000   
         H         H         1.0       0.8408850683005122  0.23406520368944914           0.9089871797707598 1.0000   
         H         H         1.0       0.7813098657384145  0.23175635941553016           0.8641365287158517 1.0000   
         H         H         1.0       0.7630130448330313  0.20808427092982107           0.8629276458587314 1.0000   
         H         H         1.0       0.7479164907059868  0.2179585393863554  0.032957414148321096         1.0000   
         H         H         1.0       0.7680536874248696  0.2437846072003392  0.03062991540991722          1.0000   
         H         H         1.0       0.7547293532459661  0.26743659169050066           0.9601474054154259 1.0000   
         H         H         1.0       0.7427593428423578  0.2917480290230479  0.9988942407642858 1.0000   
         H         H         1.0       0.792648509891664   0.3112796293242639  0.033875875210773065         1.0000   
         H         H         1.0       0.8051664072460714  0.28439564973513987           0.9919958057426042 1.0000   
         C         C         1.0       0.7932364118575728  0.4183578060407685  0.17024964535551587          1.0000   
         C         C         1.0       0.7823068730313187  0.4159839834858113  0.21482581351074512          1.0000   
         C         C         1.0       0.7883543586772208  0.4095920434992362  0.26473233330051976          1.0000   
         C         C         1.0       0.8048751125484003  0.40435327169006735           0.2692083617944838 1.0000   
         C         C         1.0       0.8148119306495106  0.4040293057269132  0.22118072685443377          1.0000   
         C         C         1.0       0.8090964013076212  0.412257179095464   0.1720009921703233 1.0000   
         H         H         1.0       0.770380705585533   0.4216271135091052  0.21447545575399787          1.0000   
         H         H         1.0       0.7796004027146843  0.41063079618381876           0.2998175588924506 1.0000   
         H         H         1.0       0.8281476008811661  0.4003113269114962  0.2172585589462245 1.0000   
         H         H         1.0       0.8167373041720059  0.4130875111186589  0.1371343793582331 1.0000   
         C         C         1.0       0.8329518079926834  0.37332223400273007           0.3438084337137074 1.0000   
         C         C         1.0       0.8301792656141721  0.38962424603613055           0.32807466174914285          1.0000   
         C         C         1.0       0.844430792519818   0.39943209213475234           0.30971254885986016          1.0000   
         C         C         1.0       0.8601882207710121  0.39232761797677773           0.313439811326719  1.0000   
         C         C         1.0       0.862440217331716   0.37562829886573107           0.3269985944771527 1.0000   
         C         C         1.0       0.8483619953064266  0.36630489753012935           0.34255237335296734          1.0000   
         C         C         1.0       0.81244301818812    0.3995953066642078  0.3315798454125241 1.0000   
         C         C         1.0       0.798732141828206   0.3881802515595146  0.3684315391757999 1.0000   
         C         C         1.0       0.7993778509016566  0.387939634043358   0.4271938147406554 1.0000   
         C         C         1.0       0.7873979991589622  0.37957551616534724           0.46017893001252747          1.0000   
         C         C         1.0       0.7765984796010714  0.3685842216831324  0.43367845045988507          1.0000   
         C         C         1.0       0.7767428650617871  0.3676720266415288  0.3726598480990388 1.0000   
         C         C         1.0       0.7879215212784546  0.37718161883848134           0.34165158189085826          1.0000   
         C         C         1.0       0.8259058374199154  0.41893333750878564           0.40896188672655226          1.0000   
         C         C         1.0       0.8243113986530354  0.43197462789278585           0.44702007106504343          1.0000   
         C         C         1.0       0.8141345730067766  0.4458015052078307  0.43744095745593403          1.0000   
         C         C         1.0       0.808087388791261   0.4461819171068915  0.3811287642635247 1.0000   
         C         C         1.0       0.8075553621026318  0.43228574120558805           0.3482388154915762 1.0000   
         C         C         1.0       0.8152480586976075  0.4175591314917222  0.3635896924766182 1.0000   
         C         C         1.0       0.806068707826711   0.45758142730364953           0.4829362955250281 1.0000   
         C         C         1.0       0.8318741418396381  0.4721292813242568  0.6392391245603176 1.0000   
         C         C         1.0       0.8147826050445355  0.46767099055116973           0.6438312339230751 1.0000   
         C         C         1.0       0.8063740729255343  0.4630376459713612  0.5950640664019391 1.0000   
         C         C         1.0       0.8156285750677364  0.4600263341435447  0.5430895413898247 1.0000   
         C         C         1.0       0.8328474862028267  0.4601032547116222  0.5474355087362576 1.0000   
         C         C         1.0       0.8407004601380119  0.468074005203059   0.5913521898741868 1.0000   
         C         C         1.0       0.7894134068072556  0.4466378996566542  0.49061580596606397          1.0000   
         C         C         1.0       0.7750662914939876  0.4483081959997547  0.457564078497352  1.0000   
         C         C         1.0       0.7636886639896119  0.43515264734634246           0.4523281752544905 1.0000   
         C         C         1.0       0.7648760141648342  0.42099943928834493           0.48412994559802297          1.0000   
         C         C         1.0       0.7790229911695241  0.4195751233112835  0.5177708968760546 1.0000   
         C         C         1.0       0.7905906744502106  0.43241502816291727           0.5217151716760506 1.0000   
         C         C         1.0       0.7886316987829933  0.48608235103088593           0.4854300500898647 1.0000   
         C         C         1.0       0.7857748097361845  0.5017274407823553  0.466186725212359  1.0000   
         C         C         1.0       0.7965474519958494  0.508872916345661   0.42742516247081336          1.0000   
         C         C         1.0       0.8105792360206799  0.4999535193918526  0.4061750808633289 1.0000   
         C         C         1.0       0.8127946545249826  0.4839285490464711  0.4244813459684336 1.0000   
         C         C         1.0       0.8025294925027888  0.47663660704080135           0.46484698538139446          1.0000   
         H         H         1.0       0.822375087644822   0.3654741422728283  0.3552843437261065 1.0000   
         H         H         1.0       0.8429224396546585  0.4124541931184444  0.2993609434032165 1.0000   
         H         H         1.0       0.8704498478872504  0.399805768638998   0.29847157840682426          1.0000   
         H         H         1.0       0.8502343291881144  0.3536596370594459  0.3528946894636076 1.0000   
         H         H         1.0       0.8074407717526503  0.397052753295957   0.44837791411469363          1.0000   
         H         H         1.0       0.7880890406495609  0.3796273238005464  0.5029579631290325 1.0000   
         H         H         1.0       0.7691236606603274  0.35882189280639276           0.3480746372936243 1.0000   
         H         H         1.0       0.7877452332802779  0.3757417658152331  0.29640180789844894          1.0000   
         H         H         1.0       0.8329483251553271  0.40820220107670374           0.42415057485760305          1.0000   
         H         H         1.0       0.8295584948270099  0.42938389591075754           0.4883627490554289 1.0000   
         H         H         1.0       0.8019994634020905  0.4571805991273797  0.36169253809316576          1.0000   
         H         H         1.0       0.8009874246986454  0.435083829998162   0.307604222912215  1.0000   
         H         H         1.0       0.8090681047333761  0.4685444846107484  0.686657448703721  1.0000   
         H         H         1.0       0.7922144576130242  0.4627433066275802  0.5950150470543263 1.0000   
         H         H         1.0       0.8400884054123844  0.45899410108128197           0.5102821483863762 1.0000   
         H         H         1.0       0.8546190812104015  0.46969115437052184           0.5867689240087602 1.0000   
         H         H         1.0       0.7739995139577449  0.45857100938592965           0.4272403061275661 1.0000   
         H         H         1.0       0.7536979226213211  0.43709545011571377           0.4238557187654483 1.0000   
         H         H         1.0       0.7807484899649736  0.40779641666124966           0.5403853777826989 1.0000   
         H         H         1.0       0.8018133925373939  0.4313304997676433  0.544993913785366  1.0000   
         H         H         1.0       0.7804571339730377  0.4801803513157578  0.5155364262713446 1.0000   
         H         H         1.0       0.7755543450533385  0.509083764575863   0.4880071778553156 1.0000   
         H         H         1.0       0.8191562974543593  0.5058323837995793  0.373645683139129  1.0000   
         H         H         1.0       0.8239954079535413  0.478620501851037   0.4088678761493252 1.0000   
         C         C         1.0       0.7467060426327445  0.4088767752436627  0.5960397180287846 1.0000   
         C         C         1.0       0.7520422602283453  0.39406823849417455           0.6240634208896524 1.0000   
         C         C         1.0       0.7635976007981211  0.3948610112947419  0.6674714768661587 1.0000   
         C         C         1.0       0.770971048729846   0.41060597727659176           0.682104802004211  1.0000   
         C         C         1.0       0.7654421047688975  0.42482214737888935           0.6522324000908803 1.0000   
         C         C         1.0       0.7522504525450306  0.4240933819880034  0.6160992153619252 1.0000   
         H         H         1.0       0.7474635936075824  0.38132673996560595           0.6103981030806156 1.0000   
         H         H         1.0       0.7664582059890999  0.38341153410147905           0.6922902375987674 1.0000   
         H         H         1.0       0.7703663388101167  0.4366899063647239  0.6650451061726417 1.0000   
         H         H         1.0       0.747878616511802   0.4353531160335649  0.596337259686461  1.0000   
         C         C         1.0       0.8118317052757182  0.41697015033265084           0.6545891714970803 1.0000   
         C         C         1.0       0.8018222097360681  0.40565071499669614           0.6817192382348091 1.0000   
         C         C         1.0       0.803716817376903   0.38909928259291204           0.66786719419255   1.0000   
         C         C         1.0       0.8151577705228039  0.38389217230612377           0.6294850977441939 1.0000   
         C         C         1.0       0.8267235021405578  0.3952148471306659  0.60397352767769   1.0000   
         C         C         1.0       0.8245994374196626  0.41250047447322785           0.6169123610025875 1.0000   
         C         C         1.0       0.786941652681761   0.4116620842725418  0.7238437535303675 1.0000   
         C         C         1.0       0.7854436983544073  0.3991223350520506  0.7779547865072691 1.0000   
         C         C         1.0       0.7995334390836685  0.3920493890583689  0.8039453394880111 1.0000   
         C         C         1.0       0.7982761225272411  0.3834677521931293  0.8553099379656786 1.0000   
         C         C         1.0       0.7829148213200107  0.381806237296873   0.8814248540936134 1.0000   
         C         C         1.0       0.7687007823084108  0.38814824647654517           0.8559155534045275 1.0000   
         C         C         1.0       0.7703757363242778  0.39594519060323996           0.8050692602081978 1.0000   
         C         C         1.0       0.804677814955164   0.4349754262110459  0.7728747472672296 1.0000   
         C         C         1.0       0.8055599211976929  0.44894808535937664           0.8070792010866631 1.0000   
         C         C         1.0       0.7909903087495905  0.4568048286960355  0.8274415699840422 1.0000   
         C         C         1.0       0.7756905122795987  0.45094586274276005           0.8072701601607273 1.0000   
         C         C         1.0       0.7745513692882775  0.4363420001104375  0.7782660192982503 1.0000   
         C         C         1.0       0.7889919684626407  0.4281136616693692  0.7584060980314218 1.0000   
         C         C         1.0       0.7918850727315567  0.4700043210632057  0.8768874770553017 1.0000   
         C         C         1.0       0.8361753853294566  0.5025343100707969  0.8980481562176046 1.0000   
         C         C         1.0       0.8299550269324778  0.498628247896956   0.8444807245936635 1.0000   
         C         C         1.0       0.8171914168201788  0.4875104914438516  0.8377973247163629 1.0000   
         C         C         1.0       0.8081962610562327  0.4815979585845947  0.8847469829355202 1.0000   
         C         C         1.0       0.813226384354639   0.4863668544590165  0.9373866947182284 1.0000   
         C         C         1.0       0.8277953853632416  0.49575234590794776           0.9443896920666018 1.0000   
         C         C         1.0       0.7889111385466288  0.4563671165452506  0.9274616273575768 1.0000   
         C         C         1.0       0.7735396346544378  0.45072735619733645           0.9455940039216829 1.0000   
         C         C         1.0       0.7726575950162243  0.43885004639544034           0.9878465538585852 1.0000   
         C         C         1.0       0.7869615504543138  0.43353935345738065           0.015886602693091723         1.0000   
         C         C         1.0       0.8024328595281692  0.43731684865345305           0.9937219621210442 1.0000   
         C         C         1.0       0.8038965252595164  0.44866822509038606           0.9478223726466614 1.0000   
         C         C         1.0       0.7703855753569714  0.4919531206413343  0.9138072182453857 1.0000   
         C         C         1.0       0.7575237219137593  0.5031693274698686  0.9045307876059017 1.0000   
         C         C         1.0       0.7546034740375078  0.5091673123412958  0.8509519457914858 1.0000   
         C         C         1.0       0.7639067932723198  0.5028981032171211  0.8067307074293021 1.0000   
         C         C         1.0       0.775233238287567   0.49064771601961715           0.8162334099170889 1.0000   
         C         C         1.0       0.7787135586765077  0.48443839839826897           0.8701598341492763 1.0000   
         H         H         1.0       0.8111710366266389  0.43046673080317677           0.6641320325554727 1.0000   
         H         H         1.0       0.795311779017082   0.3798079721085257  0.6889734531912687 1.0000   
         H         H         1.0       0.8165873278774686  0.3710943226454762  0.6256614315464855 1.0000   
         H         H         1.0       0.83256846314963    0.42265815445669885           0.6025003681043999 1.0000   
         H         H         1.0       0.8125666259543501  0.39354713583160084           0.7892486615722388 1.0000   
         H         H         1.0       0.8091554666279994  0.3762986723310047  0.8743845685015941 1.0000   
         H         H         1.0       0.756000294146506   0.38544750007165995           0.8728731894652185 1.0000   
         H         H         1.0       0.7583828416577014  0.4007749031306538  0.7915495109425471 1.0000   
         H         H         1.0       0.8157123406817002  0.42689563815431436           0.7650270381275835 1.0000   
         H         H         1.0       0.8178013436491635  0.45389019187673074           0.8193569802208838 1.0000   
         H         H         1.0       0.7646870137063869  0.4562540860966528  0.8259007509536577 1.0000   
         H         H         1.0       0.7622862988442769  0.4312352883574631  0.76786689309192   1.0000   
         H         H         1.0       0.8382084633633881  0.5025598619634466  0.8107620586692047 1.0000   
         H         H         1.0       0.8137126293130801  0.4832519477538476  0.7943565736874887 1.0000   
         H         H         1.0       0.8067959101524342  0.48148238236115903           0.9728211275986602 1.0000   
         H         H         1.0       0.8301187370049706  0.5002362347514553  0.9869559671404713 1.0000   
         H         H         1.0       0.7625504837671719  0.45672220833770194           0.9257478213724099 1.0000   
         H         H         1.0       0.7605380373905881  0.4360692975099363  0.007861215832882573         1.0000   
         H         H         1.0       0.8133500707646772  0.4332661093140091  0.017327521240262378         1.0000   
         H         H         1.0       0.8162814811081031  0.4507178187613682  0.9291140175483014 1.0000   
         H         H         1.0       0.771808281436409   0.48692048420122647           0.9568546222484154 1.0000   
         H         H         1.0       0.751335880481873   0.5070397430315052  0.9411573130195436 1.0000   
         H         H         1.0       0.7614810954047675  0.5056417700506362  0.7633201276156328 1.0000   
         H         H         1.0       0.781990732573196   0.4853236273882946  0.7810490763867396 1.0000   
         C         C         1.0       0.9741339823140277  0.35005558832680633           0.22839334862037744          1.0000   
         C         C         1.0       0.9807977446463872  0.3348991491465369  0.24684804255699422          1.0000   
         C         C         1.0       0.9714586623571347  0.32047555652550747           0.2448077192548512 1.0000   
         C         C         1.0       0.9541133248173581  0.32105502730062313           0.23396877708754352          1.0000   
         C         C         1.0       0.9472467098148737  0.3363858477625357  0.21653466050462936          1.0000   
         C         C         1.0       0.9572984566725489  0.35010819924497516           0.2099380444192223 1.0000   
         H         H         1.0       0.9940563541960259  0.33431470720334927           0.2635594326514285 1.0000   
         H         H         1.0       0.9767102817858219  0.3087291279142582  0.25887060016457203          1.0000   
         H         H         1.0       0.9343021091914882  0.33753066517439345           0.20374515081317807          1.0000   
         H         H         1.0       0.9511464955105676  0.36094817430555093           0.1900281826657447 1.0000   
         C         C         1.0       0.917576999523276   0.3182016402354399  0.2823754386876886 1.0000   
         C         C         1.0       0.9239100795538971  0.30442701903460534           0.25461278245163094          1.0000   
         C         C         1.0       0.9125585612649796  0.2909316858473311  0.2466765489516361 1.0000   
         C         C         1.0       0.8961714794646332  0.2923535640449937  0.26467025483164275          1.0000   
         C         C         1.0       0.8902020750952555  0.30588672886265206           0.2946034564088796 1.0000   
         C         C         1.0       0.9010799167630358  0.31899137361764696           0.30179206060648056          1.0000   
         C         C         1.0       0.9425865973203209  0.30336036681586415           0.2305782960464401 1.0000   
         C         C         1.0       0.950589756742506   0.28838864298252326           0.2669928159758394 1.0000   
         C         C         1.0       0.9516557740645273  0.2719757091353571  0.24757833710708052          1.0000   
         C         C         1.0       0.9611042026690242  0.2598433909405615  0.2742154806455903 1.0000   
         C         C         1.0       0.9655882937352113  0.26262825624583325           0.3292257632995929 1.0000   
         C         C         1.0       0.962419457494649   0.2772112389830667  0.35397790489965403          1.0000   
         C         C         1.0       0.9562590912184428  0.2904270466660556  0.322326814038787  1.0000   
         C         C         1.0       0.9281614842760555  0.303863492447469   0.12860112167683924          1.0000   
         C         C         1.0       0.9262860364566068  0.2981419957328831  0.07648317078617795          1.0000   
         C         C         1.0       0.9392991322022041  0.28816374807201084           0.05220426758441432          1.0000   
         C         C         1.0       0.9543932322283257  0.28639241103915736           0.07968226310595772          1.0000   
         C         C         1.0       0.9565197320160929  0.29236004783310365           0.13499539299169253          1.0000   
         C         C         1.0       0.9421513148890381  0.2995191951367313  0.16350471681927328          1.0000   
         C         C         1.0       0.9350788703222458  0.27956415608052904           0.9946561959697681 1.0000   
         C         C         1.0       0.8831478330184506  0.2605943962843282  0.9902539016828531 1.0000   
         C         C         1.0       0.890798878976902   0.26640679480430673           0.9421611285910451 1.0000   
         C         C         1.0       0.9061840192976084  0.27321001320881033           0.9420950352211982 1.0000   
         C         C         1.0       0.916207367589542   0.2723351580766932  0.9906485920051246 1.0000   
         C         C         1.0       0.9089917840544354  0.26539441190772967           0.0397980278974035 1.0000   
         C         C         1.0       0.8923051263431809  0.26060009975512805           0.04057229744856761          1.0000   
         C         C         1.0       0.9443779726383509  0.2621593388531734  0.98140396274672   1.0000   
         C         C         1.0       0.9494873906293839  0.25073660994282126           0.02445961392741247          1.0000   
         C         C         1.0       0.9572442242935437  0.23619478144673733           0.011786568050971669         1.0000   
         C         C         1.0       0.9598030447601207  0.23173774651440526           0.9561701170510583 1.0000   
         C         C         1.0       0.9562150456518516  0.2433466538031638  0.9146215654618708 1.0000   
         C         C         1.0       0.9476181600035719  0.257438431473751   0.9262407626527842 1.0000   
         C         C         1.0       0.9582917025662049  0.2967180706344309  0.9450347966909194 1.0000   
         C         C         1.0       0.9641229037290835  0.3083937399226369  0.9100908310426933 1.0000   
         C         C         1.0       0.9533309232918454  0.31934738728989664           0.8834723659851537 1.0000   
         C         C         1.0       0.936085054835717   0.3181721536568191  0.8940344210869493 1.0000   
         C         C         1.0       0.9303302107189746  0.30648664399311537           0.9321389612481157 1.0000   
         C         C         1.0       0.9411861645033344  0.2949986706394754  0.9569253469866303 1.0000   
         H         H         1.0       0.925400015082686   0.3288753436763652  0.2904347890494588 1.0000   
         H         H         1.0       0.9164027362536117  0.2795341858856286  0.2287304425641911 1.0000   
         H         H         1.0       0.8877221011767827  0.2825134092679114  0.2597843769367362 1.0000   
         H         H         1.0       0.896216867670085   0.33103083000992384           0.3184812757878132 1.0000   
         H         H         1.0       0.9451573227303206  0.26935014495915316           0.2099031459264413 1.0000   
         H         H         1.0       0.96168101539425    0.24745143959017155           0.2565250626471653 1.0000   
         H         H         1.0       0.9670400171630026  0.2798390899145099  0.39805394024983043          1.0000   
         H         H         1.0       0.9560628652978573  0.3018429184396039  0.3454230754149982 1.0000   
         H         H         1.0       0.9181808035668945  0.3114126651749999  0.14633880627041762          1.0000   
         H         H         1.0       0.914149969819014   0.3014368181475367  0.05281377621346284          1.0000   
         H         H         1.0       0.9645210841359656  0.2801173366363384  0.057394675271015494         1.0000   
         H         H         1.0       0.9677288455820743  0.29068189414394363           0.16098630290548713          1.0000   
         H         H         1.0       0.8824515647579355  0.2678000260074017  0.9077830922916827 1.0000   
         H         H         1.0       0.9111229204085662  0.27804783278278966           0.9014556994086044 1.0000   
         H         H         1.0       0.9157534473533707  0.26488068742142645           0.07944214662996707          1.0000   
         H         H         1.0       0.8863409489654167  0.2585458677377762  0.08143759477563295          1.0000   
         H         H         1.0       0.9446029621468603  0.25300015463233727           0.06523017286565502          1.0000   
         H         H         1.0       0.9601738622948713  0.22683981677538875           0.044198049756008384         1.0000   
         H         H         1.0       0.9596649212016167  0.23921432251287447           0.8729092708525684 1.0000   
         H         H         1.0       0.9457023322145166  0.26568398260167264           0.8905639694723435 1.0000   
         H         H         1.0       0.9676810983049551  0.2891095873925212  0.9637318455025884 1.0000   
         H         H         1.0       0.97728197443075    0.3087809660643712  0.9023980748560857 1.0000   
         H         H         1.0       0.9269030246473328  0.326702955232225   0.8789824942562199 1.0000   
         H         H         1.0       0.9167996460959354  0.30700095804272143           0.9440749808742859 1.0000   
         C         C         1.0       0.9465480796382898  0.3243939147213593  0.4322155349006117 1.0000   
         C         C         1.0       0.9574150233062376  0.3169557135909297  0.4702495240975435 1.0000   
         C         C         1.0       0.9514177046031193  0.30865113820190104           0.5200594042520599 1.0000   
         C         C         1.0       0.934861910947482   0.30959027583093424           0.5362392037004392 1.0000   
         C         C         1.0       0.9239165975267093  0.31624452129208624           0.4967822860999132 1.0000   
         C         C         1.0       0.9292618868885945  0.32371880039258744           0.4457838160140481 1.0000   
         H         H         1.0       0.9709475819385418  0.3173017087186041  0.46081334909492433          1.0000   
         H         H         1.0       0.9607015581544662  0.30358129521877136           0.5480575218473597 1.0000   
         H         H         1.0       0.9112033969218362  0.3188747513835838  0.5062586032870195 1.0000   
         H         H         1.0       0.9212705817964765  0.33021227243911844           0.41475361640269   1.0000   
         C         C         1.0       0.9041477739202504  0.32307628765579666           0.6144843471150839 1.0000   
         C         C         1.0       0.9105224688187524  0.30695082652305344           0.6182423752054979 1.0000   
         C         C         1.0       0.9021181023589794  0.2958530780327524  0.6521443581027314 1.0000   
         C         C         1.0       0.886115682474943   0.29948588847849666           0.6745708244054162 1.0000   
         C         C         1.0       0.8791684694846675  0.3150118334904775  0.6632199618712888 1.0000   
         C         C         1.0       0.8880202035566441  0.32615127985630804           0.6313917000694903 1.0000   
         C         C         1.0       0.9291289900855528  0.3018186826999532  0.5958362483697138 1.0000   
         C         C         1.0       0.9404853957277017  0.308822958683278   0.646925845786705  1.0000   
         C         C         1.0       0.9397095238274247  0.30082260789318865           0.6985696825658572 1.0000   
         C         C         1.0       0.9498623458089421  0.3052088950063152  0.7424944517168091 1.0000   
         C         C         1.0       0.9596324446335956  0.3198039334460939  0.7394495923815881 1.0000   
         C         C         1.0       0.9595012908498846  0.32924416734820167           0.6900238944714872 1.0000   
         C         C         1.0       0.9488418658012656  0.3245097587849433  0.6453419233554992 1.0000   
         C         C         1.0       0.9182979184486174  0.27449638675065774           0.5557573896789286 1.0000   
         C         C         1.0       0.9171293265566892  0.2573718419995184  0.5534502694607957 1.0000   
         C         C         1.0       0.930396553595793   0.24733420645949816           0.5705510429164622 1.0000   
         C         C         1.0       0.9450896064322835  0.25556102599178593           0.5896583340000722 1.0000   
         C         C         1.0       0.9456932183081053  0.2727260758132727  0.5942637155536141 1.0000   
         C         C         1.0       0.931434057352809   0.28286523230316907           0.5814127787623129 1.0000   
         C         C         1.0       0.9271135916257707  0.22779329399086676           0.5682246250405871 1.0000   
         C         C         1.0       0.8732992016003509  0.21236587024365663           0.5696851701074209 1.0000   
         C         C         1.0       0.8847163876298836  0.2043354254447493  0.5340930412033403 1.0000   
         C         C         1.0       0.9011162975978443  0.21004145694865278           0.533268417576442  1.0000   
         C         C         1.0       0.9076244406469179  0.2223549697688801  0.5684876361326838 1.0000   
         C         C         1.0       0.8953316221417952  0.22920375601611254           0.6065911732289161 1.0000   
         C         C         1.0       0.8781947872510212  0.22479374538266225           0.6057944236004142 1.0000   
         C         C         1.0       0.9342428707937401  0.21702310190266422           0.6223637735441315 1.0000   
         C         C         1.0       0.9347182931387461  0.2252622835990287  0.673974738481623  1.0000   
         C         C         1.0       0.9420019582597914  0.21777769059382973           0.7223041853717964 1.0000   
         C         C         1.0       0.9465124226969454  0.20112205652204673           0.7210438274687744 1.0000   
         C         C         1.0       0.9440106516394016  0.19232298052595845           0.6707877313976559 1.0000   
         C         C         1.0       0.9386357168602346  0.20012158557679444           0.6219503192348326 1.0000   
         C         C         1.0       0.9549369395924748  0.22111807724835697           0.5148319047184305 1.0000   
         C         C         1.0       0.9645849125514792  0.22208570387951945           0.46776428670062886          1.0000   
         C         C         1.0       0.9582697327430626  0.226186373016084   0.4158729310847636 1.0000   
         C         C         1.0       0.9412140745378708  0.22897455152701274           0.41256727396449616          1.0000   
         C         C         1.0       0.9310809021679788  0.228449720079693   0.46139804832572723          1.0000   
         C         C         1.0       0.9375836636418247  0.22386413752169199           0.5130452849683915 1.0000   
         H         H         1.0       0.9114428232193722  0.3323078260483004  0.592049612773314  1.0000   
         H         H         1.0       0.9087561285024396  0.2843962995878144  0.6649736248177958 1.0000   
         H         H         1.0       0.8805676839061369  0.29005965364583897           0.7008669508499448 1.0000   
         H         H         1.0       0.8819028887027378  0.33807536148507583           0.6285950600931083 1.0000   
         H         H         1.0       0.9343046952514973  0.28802245391607556           0.7053958443655721 1.0000   
         H         H         1.0       0.9509668345031136  0.2983761017234751  0.7815703716644051 1.0000   
         H         H         1.0       0.9665385365193666  0.34052816539534436           0.6815216857079861 1.0000   
         H         H         1.0       0.9477926742625471  0.3327939085499775  0.6094248740349584 1.0000   
         H         H         1.0       0.9075025137409084  0.2813286387636755  0.5383955677724294 1.0000   
         H         H         1.0       0.9058355888247923  0.2524377363534248  0.5348540104159045 1.0000   
         H         H         1.0       0.9569032085631949  0.24952684286437446           0.599732884134003  1.0000   
         H         H         1.0       0.9568921310062106  0.27846985292176757           0.6045540694366591 1.0000   
         H         H         1.0       0.8820839462715533  0.1944211085588628  0.5052849984476411 1.0000   
         H         H         1.0       0.9104790216888636  0.2019374604220641  0.5114973318474936 1.0000   
         H         H         1.0       0.8995396147977239  0.23857163304534568           0.635885329631313  1.0000   
         H         H         1.0       0.869554181790022   0.23203086298915018           0.632472959780249  1.0000   
         H         H         1.0       0.930807112856654   0.23865687005953223           0.6828187330060876 1.0000   
         H         H         1.0       0.9422342053230787  0.2248667895196958  0.7616628768991963 1.0000   
         H         H         1.0       0.9473237288968849  0.17949325256013174           0.6666858198870197 1.0000   
         H         H         1.0       0.9373257505016248  0.19261876171535577           0.5804487066493046 1.0000   
         H         H         1.0       0.9620709744131707  0.21918608086749616           0.55425873900056   1.0000   
         H         H         1.0       0.9781655004225174  0.22159731873768626           0.4755922829941892 1.0000   
         H         H         1.0       0.9356499111946969  0.2317838520144544  0.37214362954837227          1.0000   
         H         H         1.0       0.9166215359153672  0.23027425946075616           0.4574284980361081 1.0000   
         C         C         1.0       0.924385423991688   0.4768072768425895  0.3065412548590187 1.0000   
         C         C         1.0       0.9396190916847031  0.4705123364951284  0.28914692413333526          1.0000   
         C         C         1.0       0.940879424435893   0.4552719997643005  0.25859119648578893          1.0000   
         C         C         1.0       0.9265835960701028  0.4452063140647062  0.2433931684643611 1.0000   
         C         C         1.0       0.9113792849536954  0.45227239973912886           0.2614017683570529 1.0000   
         C         C         1.0       0.9102902830897838  0.46660877877308504           0.2962275571587892 1.0000   
         H         H         1.0       0.9505501783566357  0.4783911945806363  0.299757368777144  1.0000   
         H         H         1.0       0.9532905757271088  0.4531594386172694  0.24111131569135463          1.0000   
         H         H         1.0       0.8993402693464189  0.4460274287625406  0.24952175830423357          1.0000   
         H         H         1.0       0.8976777698275452  0.47061889483874014           0.30169495547497127          1.0000   
         C         C         1.0       0.9145871079561501  0.40984765766745446           0.2871120316040189 1.0000   
         C         C         1.0       0.9170653489199568  0.41425285546347207           0.22905697802487646          1.0000   
         C         C         1.0       0.9107226083194715  0.40335166256495675           0.18930184189744814          1.0000   
         C         C         1.0       0.9028551149820763  0.3889637020888035  0.2041350880327871 1.0000   
         C         C         1.0       0.9003306001634418  0.38412981569686383           0.26096561401910573          1.0000   
         C         C         1.0       0.9070513099801014  0.3947794436619372  0.300778145027639  1.0000   
         C         C         1.0       0.9292063814867683  0.4283421202426266  0.20852381058039146          1.0000   
         C         C         1.0       0.9468347426159753  0.417775866444205   0.21545785156732047          1.0000   
         C         C         1.0       0.9533703631153159  0.40732856379961263           0.17252850969847833          1.0000   
         C         C         1.0       0.9654313334517044  0.39576650258011764           0.1859873151350353 1.0000   
         C         C         1.0       0.9715615360103574  0.3932490066788946  0.24036871380747324          1.0000   
         C         C         1.0       0.9655443492353974  0.40379711215585723           0.28347531374548063          1.0000   
         C         C         1.0       0.9531696559876913  0.4159223349667346  0.27061040852234164          1.0000   
         C         C         1.0       0.909371340040649   0.43967377249569956           0.12845718250374638          1.0000   
         C         C         1.0       0.9066211835245201  0.44821302843806154           0.07842177546974982          1.0000   
         C         C         1.0       0.9194622179626895  0.4547080670650138  0.045660085494380054         1.0000   
         C         C         1.0       0.9359272864944486  0.45131621771675867           0.061208811786731765         1.0000   
         C         C         1.0       0.93925784386479    0.44378355898829663           0.11345751611819321          1.0000   
         C         C         1.0       0.9259619102661993  0.43755590661618216           0.14713979132255295          1.0000   
         C         C         1.0       0.9156313731968708  0.4632180729377889  0.986291750899618  1.0000   
         C         C         1.0       0.873396281784671   0.4977904907812708  0.9618061184836068 1.0000   
         C         C         1.0       0.8816676950229057  0.49041439332047404           0.9150115459527429 1.0000   
         C         C         1.0       0.8925713401219569  0.47792296792313754           0.9221982589500924 1.0000   
         C         C         1.0       0.8980193734575219  0.47304951562268693           0.9773616633478696 1.0000   
         C         C         1.0       0.8901516772189969  0.4817520674638675  0.022418128969301065         1.0000   
         C         C         1.0       0.8771633340778142  0.49238956454251026           0.015001765072176099         1.0000   
         C         C         1.0       0.917057882547079   0.44661951274945594           0.9470326067135135 1.0000   
         C         C         1.0       0.9318282991893408  0.43988017370681526           0.9260627445554703 1.0000   
         C         C         1.0       0.9305432819819767  0.42646095870343576           0.88919628858471   1.0000   
         C         C         1.0       0.915024482606666   0.42018752567801876           0.8723246807748241 1.0000   
         C         C         1.0       0.8998333934490247  0.4260569452081747  0.8984549408559412 1.0000   
         C         C         1.0       0.9017512463317084  0.4383403788916328  0.937370293752216  1.0000   
         C         C         1.0       0.9341602733541984  0.4805970995052068  0.9159325053199706 1.0000   
         C         C         1.0       0.9418929021764632  0.49486320474711626           0.8968148949454955 1.0000   
         C         C         1.0       0.944024434118923   0.5079104642598173  0.9347225792643723 1.0000   
         C         C         1.0       0.9404924180993076  0.5056449333279026  0.9907057383202981 1.0000   
         C         C         1.0       0.9331772393500721  0.49042881728634447           0.010083324945016736         1.0000   
         C         C         1.0       0.9292146487636053  0.4777077761869107  0.9706446814104561 1.0000   
         H         H         1.0       0.918429792572086   0.4184898531447603  0.32159553792073964          1.0000   
         H         H         1.0       0.9125207756785481  0.40403910346983696           0.14123711649841453          1.0000   
         H         H         1.0       0.8988987251064252  0.3806617696350867  0.17176988522451497          1.0000   
         H         H         1.0       0.9059378319260805  0.39210851837629646           0.3470302023248702 1.0000   
         H         H         1.0       0.9481295613908426  0.40655340229998504           0.12993681569435656          1.0000   
         H         H         1.0       0.9710586470434687  0.38826242446648973           0.15662893544608192          1.0000   
         H         H         1.0       0.9698053205945194  0.4019515509259701  0.3257604428243151 1.0000   
         H         H         1.0       0.9477672342292872  0.42246127229449837           0.3046964066709082 1.0000   
         H         H         1.0       0.8983380104701608  0.433165030268082   0.1484593745665459 1.0000   
         H         H         1.0       0.8932068835449388  0.4494225867791457  0.06692030796427062          1.0000   
         H         H         1.0       0.9460891720726575  0.45616995106160624           0.03788602861931145          1.0000   
         H         H         1.0       0.9520503779167182  0.44344230811080715           0.13223074353465414          1.0000   
         H         H         1.0       0.8781713005508561  0.49284134999090345           0.8728762068315218 1.0000   
         H         H         1.0       0.8986402603911161  0.47065913223270744           0.886956779943512  1.0000   
         H         H         1.0       0.89643961686586    0.48112837472418807           0.06440579012725167          1.0000   
         H         H         1.0       0.8718692481836755  0.4985565210674548  0.049683175041276506         1.0000   
         H         H         1.0       0.9448580458052821  0.44485003731556283           0.9325479232059286 1.0000   
         H         H         1.0       0.9418984039837918  0.41938330050640493           0.8735719553472396 1.0000   
         H         H         1.0       0.8876579642176422  0.4198748328125913  0.8907105901972454 1.0000   
         H         H         1.0       0.8898848403485432  0.44116320761046085           0.9590299224822665 1.0000   
         H         H         1.0       0.9301325419530864  0.47104421161683807           0.8844172556445222 1.0000   
         H         H         1.0       0.9411427120888256  0.4960076375680017  0.8507339484390076 1.0000   
         H         H         1.0       0.9439023035854469  0.5149588847797193  0.02367463803643588          1.0000   
         H         H         1.0       0.928878308373919   0.4880013006643432  0.05333576045373434          1.0000   
         C         C         1.0       0.9171688801471826  0.40160018181280177           0.7180731750713729 1.0000   
         C         C         1.0       0.9312221385640924  0.3971534278592237  0.6860389360285778 1.0000   
         C         C         1.0       0.929074963747184   0.39265154830952387           0.6301299295703248 1.0000   
         C         C         1.0       0.9139640247310665  0.39198862747225754           0.6036964631951653 1.0000   
         C         C         1.0       0.8997928614279916  0.3939034867710851  0.6399867419248574 1.0000   
         C         C         1.0       0.9014507306449473  0.39967900973565773           0.6933350990269369 1.0000   
         H         H         1.0       0.9440100142281306  0.3974406416604907  0.6997060690146075 1.0000   
         H         H         1.0       0.941319834074683   0.39159548408115374           0.610176593489713  1.0000   
         H         H         1.0       0.8874107152538633  0.39409046818368376           0.6196339070702594 1.0000   
         H         H         1.0       0.8901065113934138  0.40439412173018924           0.7128315320431781 1.0000   
         C         C         1.0       0.8887446530257667  0.36967416680700527           0.5411386478896381 1.0000   
         C         C         1.0       0.8952209410839521  0.38363093689081557           0.5143175025884834 1.0000   
         C         C         1.0       0.8856188009855305  0.39123735837929785           0.473898915139863  1.0000   
         C         C         1.0       0.8684715286398106  0.3873236548611858  0.46736112427104126          1.0000   
         C         C         1.0       0.8616559847479068  0.3754326067684232  0.5051173670172902 1.0000   
         C         C         1.0       0.8723653967149461  0.36514815611331536           0.536632483844051  1.0000   
         C         C         1.0       0.9125156629436731  0.3927137769098342  0.5364110424344664 1.0000   
         C         C         1.0       0.9269344776811618  0.38369032493152344           0.49994211242204106          1.0000   
         C         C         1.0       0.9290517266038363  0.3862013846762703  0.4416226711778214 1.0000   
         C         C         1.0       0.9413470977784625  0.37766138654990683           0.4105366202157712 1.0000   
         C         C         1.0       0.9512134925832723  0.36555859749885367           0.4376184352862698 1.0000   
         C         C         1.0       0.9485892327251445  0.3628555337496292  0.4931840815950611 1.0000   
         C         C         1.0       0.9356586424088964  0.370447248689888   0.5220892791712178 1.0000   
         C         C         1.0       0.899840930113026   0.4220540290978837  0.54072977010188   1.0000   
         C         C         1.0       0.9010167203364777  0.43875901547993634           0.5557194164380534 1.0000   
         C         C         1.0       0.9165881546397981  0.4451592639918818  0.5664580874895123 1.0000   
         C         C         1.0       0.9304536664001958  0.4363185287135295  0.5478284457501467 1.0000   
         C         C         1.0       0.9294041699246458  0.4201764789118497  0.5317674235745246 1.0000   
         C         C         1.0       0.9136383997254887  0.41215720799358585           0.5327731853535674 1.0000   
         C         C         1.0       0.918210603165927   0.463297181875661   0.5998885206893781 1.0000   
         C         C         1.0       0.8721740604779201  0.474182703362523   0.6959713690777476 1.0000   
         C         C         1.0       0.8807461510658726  0.45976644489556867           0.7053757077588352 1.0000   
         C         C         1.0       0.8950914730662919  0.4562141757813488  0.675579235649836  1.0000   
         C         C         1.0       0.9025845053410427  0.4684267202564141  0.6401497478406853 1.0000   
         C         C         1.0       0.8946188543125112  0.4839902775027676  0.6371395658140674 1.0000   
         C         C         1.0       0.8799098906385662  0.4865301335942219  0.6659086997352152 1.0000   
         C         C         1.0       0.9213288626788952  0.4755200880458674  0.5459020328059055 1.0000   
         C         C         1.0       0.9374578627050505  0.47592595083403727           0.5214911402323729 1.0000   
         C         C         1.0       0.9403358666014386  0.48239602635985485           0.47071791287234427          1.0000   
         C         C         1.0       0.9278678081181366  0.4899343817908277  0.44313273505713613          1.0000   
         C         C         1.0       0.9115744058071399  0.48873275422994245           0.4621652644247848 1.0000   
         C         C         1.0       0.9079691545526632  0.4817584861475684  0.5132404737291958 1.0000   
         C         C         1.0       0.9400455103668847  0.4778929499119036  0.6637497759020552 1.0000   
         C         C         1.0       0.9493342439526575  0.4780354047692517  0.7110498026350085 1.0000   
         C         C         1.0       0.9535940902498469  0.4636164844037029  0.7395147990297112 1.0000   
         C         C         1.0       0.9470237361892846  0.448478209477306   0.7239103777561623 1.0000   
         C         C         1.0       0.9371284132512164  0.4473018034859082  0.6764925660672854 1.0000   
         C         C         1.0       0.9326613573843836  0.4628287766229599  0.6479238409572705 1.0000   
         H         H         1.0       0.8969926419599997  0.36211925581954124           0.564579064266661  1.0000   
         H         H         1.0       0.8917927681914739  0.4001170617589961  0.4489488553884502 1.0000   
         H         H         1.0       0.8611012145073282  0.39350743210212447           0.438755296215202  1.0000   
         H         H         1.0       0.8681490919353859  0.3560855847686706  0.5655415818748715 1.0000   
         H         H         1.0       0.9214422483179985  0.3960332260430997  0.42203050283701415          1.0000   
         H         H         1.0       0.9424146071887347  0.3800559340535049  0.3652997896436564 1.0000   
         H         H         1.0       0.9544337380411961  0.3519300502553918  0.5114560601533484 1.0000   
         H         H         1.0       0.9325017321297151  0.36570454460070895           0.5631347426443645 1.0000   
         H         H         1.0       0.8872640199571492  0.4155411979741418  0.5419967714234964 1.0000   
         H         H         1.0       0.8899784119105645  0.4449063225303398  0.5702226382645174 1.0000   
         H         H         1.0       0.943786448675696   0.4408217120548743  0.5545999496249635 1.0000   
         H         H         1.0       0.9406088641132497  0.41183427824014296           0.5329411337180058 1.0000   
         H         H         1.0       0.8749585165932537  0.44970557822151286           0.7320260004993142 1.0000   
         H         H         1.0       0.8998023462868253  0.44330794591983863           0.6770750100427478 1.0000   
         H         H         1.0       0.8985711817888518  0.49472418224762543           0.6154083372332373 1.0000   
         H         H         1.0       0.8749776623688584  0.49862697198077444           0.656199599195544  1.0000   
         H         H         1.0       0.9487429709514135  0.4713133392075399  0.5444197925582374 1.0000   
         H         H         1.0       0.9532110466574781  0.48015212019497044           0.45270783492214106          1.0000   
         H         H         1.0       0.9003242434414742  0.4942436310331317  0.4404972608369598 1.0000   
         H         H         1.0       0.8946967370021937  0.48263968259621626           0.5256061123772241 1.0000   
         H         H         1.0       0.9368938924409198  0.48926110510153703           0.6483148903251186 1.0000   
         H         H         1.0       0.9536342965121761  0.49023491295974614           0.7308835344554149 1.0000   
         H         H         1.0       0.9507149653344803  0.4368508710861553  0.7463251982223716 1.0000   
         H         H         1.0       0.9308411606899215  0.43572386497803034           0.6676932474353124 1.0000   
         C         C         1.0       0.9238118308712316  0.8722452205342307  0.021635208280051502         1.0000   
         C         C         1.0       0.9390311376686578  0.8806801245129785  0.015167806005731643         1.0000   
         C         C         1.0       0.9391985077984567  0.8980227863951405  0.019907871672886438         1.0000   
         C         C         1.0       0.9245940675206974  0.9067175757730599  0.03009570901010239          1.0000   
         C         C         1.0       0.9092841611836339  0.8979163569389815  0.030956644941465553         1.0000   
         C         C         1.0       0.909086762825799   0.8808518928945958  0.028318506222526633         1.0000   
         H         H         1.0       0.9510552195594751  0.8745170964615877  0.009031532120132635         1.0000   
         H         H         1.0       0.9504018284466492  0.9045491860823132  0.01573824668238677          1.0000   
         H         H         1.0       0.897255998587564   0.9028062293821623  0.04204602649354983          1.0000   
         H         H         1.0       0.8971122093404261  0.8749231289969207  0.035992493624508404         1.0000   
         C         C         1.0       0.9001563307460995  0.9356357105665174  0.9805771349292948 1.0000   
         C         C         1.0       0.9077010262253842  0.937213767396779   0.03191781613289768          1.0000   
         C         C         1.0       0.9046253108140153  0.9517971701228346  0.06117805841890589          1.0000   
         C         C         1.0       0.8944534977531812  0.9642842957416314  0.038400660620684146         1.0000   
         C         C         1.0       0.8866740928258197  0.9624005715474657  0.9871667508431499 1.0000   
         C         C         1.0       0.8888229179358612  0.9473081173931731  0.9608237378920601 1.0000   
         C         C         1.0       0.9245441010338913  0.9261388371868075  0.044860860985452396         1.0000   
         C         C         1.0       0.9377001397950487  0.9368351276683888  0.007143752709663609         1.0000   
         C         C         1.0       0.9450085505152301  0.9524673463471823  0.027014926779054482         1.0000   
         C         C         1.0       0.952720761265783   0.9632519203176709  0.9889146692105611 1.0000   
         C         C         1.0       0.9534206493494637  0.9596155822063143  0.9347637458668245 1.0000   
         C         C         1.0       0.9484407594874514  0.944904755556013   0.9159797933150283 1.0000   
         C         C         1.0       0.9406833762850064  0.933765421420585   0.9517321978484338 1.0000   
         C         C         1.0       0.9131440382153221  0.920434128992401   0.14576569532845524          1.0000   
         C         C         1.0       0.9148420614464143  0.9210987146750297  0.2028646264308445 1.0000   
         C         C         1.0       0.9306713545745048  0.9238922107477434  0.22907512699895863          1.0000   
         C         C         1.0       0.9442621888431803  0.9259471197146519  0.1911919333959302 1.0000   
         C         C         1.0       0.942921824499283   0.926220130729622   0.13410399381534144          1.0000   
         C         C         1.0       0.9273705492719917  0.9244331570465728  0.1111029639635368 1.0000   
         C         C         1.0       0.9315959587202768  0.9243923475043208  0.2959226355330652 1.0000   
         C         C         1.0       0.8827926554262501  0.9376314412885912  0.37734525862211465          1.0000   
         C         C         1.0       0.8914667588813096  0.9224411396511549  0.3945348621041149 1.0000   
         C         C         1.0       0.9064129864113654  0.9183199288893465  0.36828248063248176          1.0000   
         C         C         1.0       0.9139740744605169  0.9287477567621065  0.32591902539195056          1.0000   
         C         C         1.0       0.9045606436759861  0.9426716417176771  0.30969101229815277          1.0000   
         C         C         1.0       0.8891757444421565  0.9471361858709311  0.33554012095037306          1.0000   
         C         C         1.0       0.9429350827667603  0.9377079943361507  0.32480140579486927          1.0000   
         C         C         1.0       0.9483430349489769  0.9514273437689224  0.29700305899625434          1.0000   
         C         C         1.0       0.9540787037472381  0.9653384866241597  0.3255804011023858 1.0000   
         C         C         1.0       0.9554257895174421  0.9650619069406949  0.3835422985793618 1.0000   
         C         C         1.0       0.9510152384086733  0.9510176197786798  0.41372099614378677          1.0000   
         C         C         1.0       0.9449137298551218  0.9373003782784713  0.3846843851855502 1.0000   
         C         C         1.0       0.9548190344091663  0.9026166554883894  0.3175063731112356 1.0000   
         C         C         1.0       0.961751756123428   0.8867652704552513  0.32857982049588635          1.0000   
         C         C         1.0       0.9509970864141181  0.8734462346723749  0.33099240524914053          1.0000   
         C         C         1.0       0.9342771586243485  0.875806982193104   0.3175110402360623 1.0000   
         C         C         1.0       0.928432318097531   0.891150811758569   0.2999981891649381 1.0000   
         C         C         1.0       0.9380056977833013  0.9056932242406746  0.30565390436762047          1.0000   
         H         H         1.0       0.9037579648128097  0.9255235366360014  0.9550378004247055 1.0000   
         H         H         1.0       0.909673971004911   0.9540788088993465  0.10178359385121277          1.0000   
         H         H         1.0       0.8946618402845391  0.9764239118703478  0.06161207923914325          1.0000   
         H         H         1.0       0.8827198183044191  0.9447081083387632  0.9225749373107267 1.0000   
         H         H         1.0       0.9438940123813779  0.9587580397265716  0.06761421608815898          1.0000   
         H         H         1.0       0.9565738630976837  0.9754196362815329  0.0016579327388912546        1.0000   
         H         H         1.0       0.9498729056414077  0.9407358187885031  0.8726092997436804 1.0000   
         H         H         1.0       0.9367520410508581  0.9229222194199241  0.9304104755542245 1.0000   
         H         H         1.0       0.9009678830222317  0.9166502987729163  0.12962143238029528          1.0000   
         H         H         1.0       0.9029273437622967  0.9212426952212023  0.2236563272339402 1.0000   
         H         H         1.0       0.9579679805185743  0.9257604971531809  0.2064234677571918 1.0000   
         H         H         1.0       0.9546416481623529  0.9272125946531926  0.11069387406008477          1.0000   
         H         H         1.0       0.8863313728643557  0.9136919972054696  0.4255288187470056 1.0000   
         H         H         1.0       0.9123085183699919  0.907051970204029   0.38116462842753457          1.0000   
         H         H         1.0       0.9105032700682874  0.9516978106596174  0.2819424503503317 1.0000   
         H         H         1.0       0.883379627081575   0.9587298748228105  0.3271277307840178 1.0000   
         H         H         1.0       0.9469635567072969  0.9519942049919736  0.25322389097234643          1.0000   
         H         H         1.0       0.9566155033002132  0.9770734764505801  0.30258994846384746          1.0000   
         H         H         1.0       0.9519318996952438  0.950576491281692   0.4607233695967429 1.0000   
         H         H         1.0       0.9382003233038831  0.9267858579516703  0.4047062462183677 1.0000   
         H         H         1.0       0.9640428327692406  0.9126239858266624  0.3162157696667979 1.0000   
         H         H         1.0       0.9746831957117746  0.8858096486401301  0.34619755375433314          1.0000   
         H         H         1.0       0.9244750971371276  0.8662977944063964  0.3252887456046691 1.0000   
         H         H         1.0       0.9155635831008798  0.891839060676793   0.29149636806948803          1.0000   
         C         C         1.0       0.93742117467934    0.865812207760487   0.7568933898539008 1.0000   
         C         C         1.0       0.9481201574131729  0.8769643047989787  0.7307647589937875 1.0000   
         C         C         1.0       0.9435120327061032  0.881310694425312   0.6756038421072661 1.0000   
         C         C         1.0       0.9289555526134273  0.8757198609315526  0.6485229232150117 1.0000   
         C         C         1.0       0.9219498983282046  0.8618252917101213  0.6718462110973784 1.0000   
         C         C         1.0       0.9253755990986166  0.8574797244718528  0.7267224294081601 1.0000   
         H         H         1.0       0.9579650804235644  0.8838043896749093  0.7560107815950025 1.0000   
         H         H         1.0       0.9490549701677181  0.8939611919228467  0.6603253325044064 1.0000   
         H         H         1.0       0.9115570828892039  0.8536910123507843  0.6561226953566649 1.0000   
         H         H         1.0       0.9187562621892614  0.8468983237103493  0.7447040983229634 1.0000   
         C         C         1.0       0.89665001543828    0.8831326275883739  0.5223208762943393 1.0000   
         C         C         1.0       0.902463147592305   0.8819813436201296  0.5771770671904802 1.0000   
         C         C         1.0       0.8894693622517411  0.8825452570889826  0.6197254894543985 1.0000   
         C         C         1.0       0.8725647828544312  0.8829034082361298  0.6055927915702756 1.0000   
         C         C         1.0       0.8682453120810601  0.8832718990393456  0.550008353991161  1.0000   
         C         C         1.0       0.8801158440401182  0.8828962214443662  0.507723794155916  1.0000   
         C         C         1.0       0.9221486342013385  0.8845905090131762  0.5936290861641057 1.0000   
         C         C         1.0       0.9353864947785505  0.8775270261798362  0.5466681776890803 1.0000   
         C         C         1.0       0.9500313508626312  0.885891811112223   0.5281372283697329 1.0000   
         C         C         1.0       0.9606568745626586  0.879007377591384   0.48849214099449006          1.0000   
         C         C         1.0       0.9561710182475629  0.8636448798537754  0.46387565236423245          1.0000   
         C         C         1.0       0.9424178813603319  0.8550890087323108  0.4806664716525095 1.0000   
         C         C         1.0       0.9326619257610097  0.8616765016873691  0.5239067446701363 1.0000   
         C         C         1.0       0.9180867128896903  0.9105583601526183  0.6572361130152156 1.0000   
         C         C         1.0       0.9140776983552253  0.9269723837964166  0.6640968823672386 1.0000   
         C         C         1.0       0.9171241865608268  0.9386085184932031  0.6228987873661621 1.0000   
         C         C         1.0       0.9220076594008233  0.9332026253118844  0.5684438458014885 1.0000   
         C         C         1.0       0.9245732906049295  0.9160710426195584  0.5596679051873955 1.0000   
         C         C         1.0       0.922045982669083   0.9041314205053212  0.6018490982610204 1.0000   
         C         C         1.0       0.9154755572115205  0.95801629509806    0.6382503480659113 1.0000   
         C         C         1.0       0.8629509542396518  0.9583845318109402  0.5887261005639348 1.0000   
         C         C         1.0       0.8672231486759843  0.9541052967771688  0.6425720843453377 1.0000   
         C         C         1.0       0.8838650065458477  0.9551337802968234  0.6592641457422003 1.0000   
         C         C         1.0       0.8961786312315464  0.9604845464519436  0.6213944460984336 1.0000   
         C         C         1.0       0.8921201746770789  0.9637491853994316  0.5664371016280334 1.0000   
         C         C         1.0       0.8750433473266963  0.9620424381991853  0.549852180119275  1.0000   
         C         C         1.0       0.9278901591585943  0.971482140935771   0.6099058410545407 1.0000   
         C         C         1.0       0.9446402447199894  0.966162664701615   0.5987290737512384 1.0000   
         C         C         1.0       0.9560768218003449  0.9774535536143921  0.5804116337729034 1.0000   
         C         C         1.0       0.9524270949949232  0.993787602825017   0.5780542424249115 1.0000   
         C         C         1.0       0.9359922741886275  0.9994631233836868  0.5837618642327195 1.0000   
         C         C         1.0       0.9238364358385441  0.9880361967418866  0.6002572402644639 1.0000   
         C         C         1.0       0.9140571525285492  0.9730726088656351  0.7336846652479692 1.0000   
         C         C         1.0       0.9204587830471072  0.978956501038733   0.7849189710336311 1.0000   
         C         C         1.0       0.9345965718675547  0.9719863834706048  0.807668355170579  1.0000   
         C         C         1.0       0.942409783121729   0.9585711026584349  0.7786030691013813 1.0000   
         C         C         1.0       0.9368404621563323  0.9541082798779502  0.7267500216935038 1.0000   
         C         C         1.0       0.9225055099643773  0.9609378949033679  0.7019377489675298 1.0000   
         H         H         1.0       0.904926315795454   0.8827546645467508  0.4870654548747954 1.0000   
         H         H         1.0       0.8934203924201621  0.881697687332046   0.6623228507185246 1.0000   
         H         H         1.0       0.8624398465930787  0.8827737122271451  0.6382331625046161 1.0000   
         H         H         1.0       0.876775146703001   0.8834243382302048  0.46287880709153334          1.0000   
         H         H         1.0       0.952847943827847   0.8984196311947047  0.5407791495678843 1.0000   
         H         H         1.0       0.9701579592277836  0.8873856026277285  0.47294571379216716          1.0000   
         H         H         1.0       0.9374470456167938  0.843910553340985   0.4578782818955567 1.0000   
         H         H         1.0       0.9209131489766975  0.8554176086783133  0.540255486212194  1.0000   
         H         H         1.0       0.9137770538284595  0.9007663850580792  0.6891692477084534 1.0000   
         H         H         1.0       0.9080840435843601  0.9316388908859301  0.7035200122260519 1.0000   
         H         H         1.0       0.9233734900397377  0.9423542930298149  0.5357278986846311 1.0000   
         H         H         1.0       0.926256016524279   0.9119155968594925  0.5176693962869164 1.0000   
         H         H         1.0       0.8582294683630102  0.9487729607560973  0.6716404841191544 1.0000   
         H         H         1.0       0.8863028085429794  0.9521932065265875  0.7051930085345299 1.0000   
         H         H         1.0       0.9019167444844917  0.9672704579855019  0.5373912968172191 1.0000   
         H         H         1.0       0.8714765161416613  0.9664330597888635  0.507291567346302  1.0000   
         H         H         1.0       0.9492640913949169  0.9540620075282567  0.6090454105335199 1.0000   
         H         H         1.0       0.9679813549931121  0.9720707088076526  0.5751770685392232 1.0000   
         H         H         1.0       0.9331693564994641  0.012511269843322514         0.5862548440195477 1.0000   
         H         H         1.0       0.9117662172832842  0.9931780288924371  0.6173363824696648 1.0000   
         H         H         1.0       0.9028511391417783  0.9782903942259775  0.7167557228352749 1.0000   
         H         H         1.0       0.914530771551635   0.9889053841901932  0.8077657761250855 1.0000   
         H         H         1.0       0.954208326391368   0.9530400365025488  0.7925846125081247 1.0000   
         H         H         1.0       0.9435145543954435  0.9450007423262669  0.7031606061181247 1.0000   
         C         C         1.0       0.9909348560484045  0.7546947607322427  0.13288629540813468          1.0000   
         C         C         1.0       0.9892279664418633  0.7717660541458017  0.13411018617856763          1.0000   
         C         C         1.0       0.9734630193070714  0.7789284118655486  0.14222693022205557          1.0000   
         C         C         1.0       0.9596485905386738  0.76881403533721    0.1490367663387575 1.0000   
         C         C         1.0       0.9615279697861437  0.7519068320024141  0.15379391630598493          1.0000   
         C         C         1.0       0.9770554879157143  0.7451665702111017  0.14799996224262468          1.0000   
         H         H         1.0       0.9997223262716616  0.7810588564166494  0.12276116038203644          1.0000   
         H         H         1.0       0.9740588207335468  0.7925723383671013  0.1394684538784916 1.0000   
         H         H         1.0       0.9498633771288632  0.7444505202801931  0.15755556955900896          1.0000   
         H         H         1.0       0.9775376735307297  0.7307740140055591  0.14741758848196462          1.0000   
         C         C         1.0       0.9274485093554816  0.7564117361516549  0.08044725939937858          1.0000   
         C         C         1.0       0.9249238473693241  0.7665550998792492  0.1263098448600959 1.0000   
         C         C         1.0       0.9086453404130589  0.768283384320103   0.1448750196071216 1.0000   
         C         C         1.0       0.8957126460748376  0.7584952461716862  0.12169622789776367          1.0000   
         C         C         1.0       0.8988723491349279  0.7471650950485441  0.07969038335333467          1.0000   
         C         C         1.0       0.9150419801874822  0.745825087741697   0.05959804299220428          1.0000   
         C         C         1.0       0.9405898419104028  0.7764175668634916  0.15429070782700038          1.0000   
         C         C         1.0       0.9380578927655571  0.7939268415275187  0.12319182108514837          1.0000   
         C         C         1.0       0.9285948454864317  0.8072107266303502  0.14465027419849005          1.0000   
         C         C         1.0       0.9292554009225317  0.8230472357171651  0.12025610747676867          1.0000   
         C         C         1.0       0.9385009313025856  0.8254594017280362  0.07144117053648658          1.0000   
         C         C         1.0       0.945448635623028   0.8116243815549995  0.0445567193150922 1.0000   
         C         C         1.0       0.9451939087903324  0.7956410299830086  0.06887148200103765          1.0000   
         C         C         1.0       0.9332495046003367  0.7664618680827332  0.25632146216263973          1.0000   
         C         C         1.0       0.9335158671538645  0.7683101956614506  0.31301225807974686          1.0000   
         C         C         1.0       0.9436311559491567  0.7801191655489128  0.33763048425961467          1.0000   
         C         C         1.0       0.9514851997029596  0.7921435116253388  0.3023892316129894 1.0000   
         C         C         1.0       0.9491793291707907  0.7914479633409838  0.24435405731245036          1.0000   
         C         C         1.0       0.9409895628453893  0.7778010882758039  0.21956937572883584          1.0000   
         C         C         1.0       0.9444393174104788  0.7813872728637281  0.40536191752347084          1.0000   
         C         C         1.0       0.9011397569648596  0.813379362985439   0.3713790895971094 1.0000   
         C         C         1.0       0.8975517022832932  0.7990092500347316  0.40277411610126646          1.0000   
         C         C         1.0       0.9116527224268633  0.7895134646442169  0.41895662261019645          1.0000   
         C         C         1.0       0.9281271289820533  0.795307131392569   0.4118970331473329 1.0000   
         C         C         1.0       0.9307217933789278  0.8115558966090263  0.3944668353936575 1.0000   
         C         C         1.0       0.9176291518025612  0.820701644961443   0.3729331782054158 1.0000   
         C         C         1.0       0.9626284362134634  0.7886288963216667  0.4199681452668952 1.0000   
         C         C         1.0       0.9770784213552336  0.7818350342395824  0.39315538663619476          1.0000   
         C         C         1.0       0.9929983896132917  0.7854361883453885  0.41140455612169136          1.0000   
         C         C         1.0       0.9961926960669629  0.7967185885126465  0.4568931491745721 1.0000   
         C         C         1.0       0.9820374098550454  0.8048471745620845  0.48161889911581374          1.0000   
         C         C         1.0       0.9654832011013463  0.8004807264473971  0.4616508686615249 1.0000   
         C         C         1.0       0.9370037388637716  0.7622315978528339  0.49031330997202377          1.0000   
         C         C         1.0       0.9366034075375379  0.7466444701648115  0.5170398653079756 1.0000   
         C         C         1.0       0.943744491567753   0.7328322107573212  0.4923287124543674 1.0000   
         C         C         1.0       0.9528577018232162  0.7351820583317716  0.4424135210141136 1.0000   
         C         C         1.0       0.9537009704528159  0.7502838852150827  0.4167435862348096 1.0000   
         C         C         1.0       0.9442843057083575  0.7638650142051279  0.4372999863094645 1.0000   
         H         H         1.0       0.938559731037369   0.7558492852221791  0.059789381253016805         1.0000   
         H         H         1.0       0.9047020283556926  0.7749076708293247  0.17959629918719766          1.0000   
         H         H         1.0       0.882225038883887   0.7588988875224819  0.13582125733473213          1.0000   
         H         H         1.0       0.9181119168860155  0.7358101295494568  0.02990538558952216          1.0000   
         H         H         1.0       0.9222915038264995  0.8066436902057682  0.18487296280327545          1.0000   
         H         H         1.0       0.9229669575439423  0.8329330415005859  0.14545752569247522          1.0000   
         H         H         1.0       0.9519544624869726  0.8128516568335387  0.002310380560025971         1.0000   
         H         H         1.0       0.9503423153868069  0.7848007421670394  0.04656586806185414          1.0000   
         H         H         1.0       0.9271047506998584  0.7557536662132773  0.23947013978195086          1.0000   
         H         H         1.0       0.9266505127760877  0.7588302810893003  0.33798915895963544          1.0000   
         H         H         1.0       0.9568046037455905  0.8036011673172954  0.31934381256562017          1.0000   
         H         H         1.0       0.9549752409850979  0.8024300229021533  0.22377925273501217          1.0000   
         H         H         1.0       0.8851309691715844  0.7938251076613303  0.4034559253323546 1.0000   
         H         H         1.0       0.9093377595055944  0.776677638321616   0.43496631432861976          1.0000   
         H         H         1.0       0.9419665202457457  0.8179482577554414  0.38549209520104055          1.0000   
         H         H         1.0       0.9211262987134119  0.8323231307163859  0.3512612280608871 1.0000   
         H         H         1.0       0.9752056612714791  0.7726132003067615  0.3582227973280009 1.0000   
         H         H         1.0       0.003678436285595499          0.779492624077804  0.39111459361386147          1.0000   
         H         H         1.0       0.9831708351938218  0.812966437248358   0.5173483751802332 1.0000   
         H         H         1.0       0.9551358194806031  0.8064342882214127  0.480967899432388  1.0000   
         H         H         1.0       0.9298898934263609  0.7715275854681306  0.5106097093679296 1.0000   
         H         H         1.0       0.9289299522805766  0.7462682114885317  0.552574011947022  1.0000   
         H         H         1.0       0.9596029260566751  0.7260487526495868  0.4210369873800866 1.0000   
         H         H         1.0       0.9601908087431212  0.7513870295341727  0.3768126107565395 1.0000   
         C         C         1.0       0.0024917608890742127         0.7797891888873295 0.575565764771135  1.0000   
         C         C         1.0       0.005200210120076099          0.788940195107245  0.6229240311398712 1.0000   
         C         C         1.0       0.9919973792686766  0.791781806193902   0.6619226192872516 1.0000   
         C         C         1.0       0.9756819938452848  0.7871727340620552  0.6474861641382699 1.0000   
         C         C         1.0       0.9736527894012426  0.7760920161493368  0.6027925824369076 1.0000   
         C         C         1.0       0.9865531332085714  0.7728939468509015  0.5665057581164712 1.0000   
         H         H         1.0       0.01778068610566086           0.7926036979849159 0.637070651393269  1.0000   
         H         H         1.0       0.9954561863051287  0.7988406552263786  0.7001051386730155 1.0000   
         H         H         1.0       0.9614410340910734  0.7698335138119341  0.5966997693094632 1.0000   
         H         H         1.0       0.9840565254473863  0.7659696766401218  0.5260119586261551 1.0000   
         C         C         1.0       0.9413917294151852  0.8011493815968176  0.6047787810649516 1.0000   
         C         C         1.0       0.942627317995653   0.7939363839797577  0.6601384571032378 1.0000   
         C         C         1.0       0.9277684578218836  0.7940548217442972  0.6900423516097739 1.0000   
         C         C         1.0       0.9126671380305326  0.799880550097316   0.6672916927830568 1.0000   
         C         C         1.0       0.911350444906655   0.8054280093339661  0.6138778009126624 1.0000   
         C         C         1.0       0.926330996373342   0.8061747223598291  0.5818670883231299 1.0000   
         C         C         1.0       0.9602637270752487  0.7905598820957753  0.6884184594929622 1.0000   
         C         C         1.0       0.9611973474298952  0.8076514599919128  0.723114203923739  1.0000   
         C         C         1.0       0.9548862899209711  0.8090861029390217  0.7771142019717789 1.0000   
         C         C         1.0       0.955327916297394   0.8236673311202487  0.8079277778371985 1.0000   
         C         C         1.0       0.9629443150476285  0.8375134256599387  0.7875369067366964 1.0000   
         C         C         1.0       0.9686367453469715  0.8375739792332061  0.7317223901455273 1.0000   
         C         C         1.0       0.967815638648829   0.8227066923779647  0.7006533626885101 1.0000   
         C         C         1.0       0.9500566787774857  0.7623218427307697  0.7212705588851852 1.0000   
         C         C         1.0       0.9474206711395353  0.7508807107741062  0.7637496527405108 1.0000   
         C         C         1.0       0.9569027567588968  0.7524555913044105  0.8128372584100766 1.0000   
         C         C         1.0       0.9719989233652404  0.7616771523291097  0.8094030588786966 1.0000   
         C         C         1.0       0.9739342348142144  0.7735012367654618  0.7681503683912341 1.0000   
         C         C         1.0       0.961553475319303   0.7750447472548337  0.7266377624329474 1.0000   
         C         C         1.0       0.9480128732985834  0.7473770631597151  0.8710606511905806 1.0000   
         C         C         1.0       0.9139520991077683  0.7922401062286002  0.8728205603454491 1.0000   
         C         C         1.0       0.9073661395720573  0.7767347594952384  0.8552422243737358 1.0000   
         C         C         1.0       0.9180092382991016  0.7628982660027783  0.8529061930480535 1.0000   
         C         C         1.0       0.9348468157230065  0.763741129003882   0.8719273246805295 1.0000   
         C         C         1.0       0.9406593218313054  0.7792213097065116  0.89219010367613   1.0000   
         C         C         1.0       0.9303716152713452  0.7928254137541555  0.8915621939661398 1.0000   
         C         C         1.0       0.9620093787071764  0.7454566784033556  0.9185976472546263 1.0000   
         C         C         1.0       0.9771772390265613  0.736583124987661   0.9107578845035627 1.0000   
         C         C         1.0       0.9907243525378527  0.7373065499425695  0.9466553353149924 1.0000   
         C         C         1.0       0.9889109449236907  0.7474929155868189  0.9940757360685718 1.0000   
         C         C         1.0       0.973679457030795   0.7553066695740305  0.005693222584124857         1.0000   
         C         C         1.0       0.9603699389499664  0.753602433445693   0.9702018658917625 1.0000   
         C         C         1.0       0.9234080410865605  0.7280907064194442  0.9102769747655901 1.0000   
         C         C         1.0       0.9151693537245508  0.7121359334062841  0.9142160330537402 1.0000   
         C         C         1.0       0.9216929047717095  0.6987955726971393  0.8861597956059298 1.0000   
         C         C         1.0       0.9380188851513145  0.700532352924164   0.8640857219144751 1.0000   
         C         C         1.0       0.9449412284598442  0.7158128037515618  0.8547735251593206 1.0000   
         C         C         1.0       0.9384527559398143  0.7297393070980137  0.8793860659330262 1.0000   
         H         H         1.0       0.9523149080540386  0.8059666164089857  0.5848523279328598 1.0000   
         H         H         1.0       0.9277092689380432  0.789887174987975   0.7335221110092817 1.0000   
         H         H         1.0       0.9021056934371413  0.8007878639222153  0.6942448948314937 1.0000   
         H         H         1.0       0.9250389311045494  0.8130226553162664  0.543417474688883  1.0000   
         H         H         1.0       0.9485450342271254  0.7979222006769342  0.7974514474207006 1.0000   
         H         H         1.0       0.9470988641110687  0.8237330051352356  0.8483237521090534 1.0000   
         H         H         1.0       0.9714410043232166  0.8498591352446342  0.7076876407545346 1.0000   
         H         H         1.0       0.9717213870990399  0.8236109001962423  0.6532723729403176 1.0000   
         H         H         1.0       0.9422680171822995  0.7610967330512697  0.6817479348036498 1.0000   
         H         H         1.0       0.9371589658728738  0.7412710594577295  0.7606694550940257 1.0000   
         H         H         1.0       0.9810462302282987  0.7630030193338744  0.8437608831134198 1.0000   
         H         H         1.0       0.9851446166058032  0.7814103174932183  0.7704390779250079 1.0000   
         H         H         1.0       0.8947478784832763  0.7751298064610004  0.8382083969201098 1.0000   
         H         H         1.0       0.9128823680105894  0.7520017894906432  0.8295785803195274 1.0000   
         H         H         1.0       0.9539536255364798  0.7809808786757215  0.9037130998805722 1.0000   
         H         H         1.0       0.9366069315283354  0.8045334477835522  0.9084121001660256 1.0000   
         H         H         1.0       0.9799541328641821  0.7305059565200742  0.8698865636379948 1.0000   
         H         H         1.0       0.0030152710319650833         0.731271856053746  0.9349636538869118 1.0000   
         H         H         1.0       0.9723507295139948  0.7638148252354312  0.040377047698908264         1.0000   
         H         H         1.0       0.948951435101909   0.7606564344351348  0.980462661903774  1.0000   
         H         H         1.0       0.918171369113395   0.7386065894743729  0.9345166790187882 1.0000   
         H         H         1.0       0.9017088597925236  0.7111216272881352  0.9236409162958512 1.0000   
         H         H         1.0       0.9439198922065383  0.6902939274707711  0.842669055951063  1.0000   
         H         H         1.0       0.956426830094398   0.715383481284732   0.8327369145638336 1.0000   
         C         C         1.0       0.7919228560520339  0.8838703256534317  0.3140351548757004 1.0000   
         C         C         1.0       0.7843177529310077  0.8778110272124128  0.3604138996700134 1.0000   
         C         C         1.0       0.7771300079275874  0.8891818690656854  0.397774047516887  1.0000   
         C         C         1.0       0.778936419306079   0.9064068602373908  0.3942589950925964 1.0000   
         C         C         1.0       0.7868247627774968  0.912251360421211   0.3450760297085958 1.0000   
         C         C         1.0       0.7919298438557498  0.9012091099678448  0.30290367424895   1.0000   
         H         H         1.0       0.7845999287920656  0.8647857573726632  0.36919803516856364          1.0000   
         H         H         1.0       0.772857231706792   0.8845002693476707  0.4392097575766588 1.0000   
         H         H         1.0       0.7911513705521697  0.9246156068022806  0.33755218540626303          1.0000   
         H         H         1.0       0.799831415328615   0.9052449440167388  0.269627012504979  1.0000   
         C         C         1.0       0.795402569641381   0.9054020535375993  0.5268943782402618 1.0000   
         C         C         1.0       0.7939165445479877  0.9155496699960997  0.4780526274930333 1.0000   
         C         C         1.0       0.8089614280440612  0.9227750732900983  0.4573265750603368 1.0000   
         C         C         1.0       0.8248946259413265  0.9197173182421061  0.48359751038656523          1.0000   
         C         C         1.0       0.8259282329085124  0.9098982096809429  0.5301754837276054 1.0000   
         C         C         1.0       0.8112480203578978  0.9025122016366526  0.5501193265578219 1.0000   
         C         C         1.0       0.7766392727538729  0.9189392865725953  0.4472982560908549 1.0000   
         C         C         1.0       0.7605981941852377  0.9155614638364191  0.485064276703715  1.0000   
         C         C         1.0       0.7600649035488133  0.9243659688196766  0.5359654307663143 1.0000   
         C         C         1.0       0.746081414434537   0.9237508115680341  0.5685612785134155 1.0000   
         C         C         1.0       0.7330946104527913  0.912738430510112   0.5585356745285758 1.0000   
         C         C         1.0       0.7338246248841022  0.9036190693780869  0.5103400667040962 1.0000   
         C         C         1.0       0.7468285269542561  0.9055397752666633  0.4708843497830041 1.0000   
         C         C         1.0       0.7666321130789758  0.9428659274425893  0.37824007953829897          1.0000   
         C         C         1.0       0.7696667136766852  0.9579842865575992  0.354867317019645  1.0000   
         C         C         1.0       0.7801302836367827  0.9695305614889155  0.37979560993196737          1.0000   
         C         C         1.0       0.7844651895723658  0.9665900240012223  0.43624564955901474          1.0000   
         C         C         1.0       0.7820998165722707  0.9510905935782944  0.459431748279178  1.0000   
         C         C         1.0       0.7741687404226505  0.9377266374412272  0.42779582724036497          1.0000   
         C         C         1.0       0.7916780106938451  0.9825612583618543  0.34663967923519046          1.0000   
         C         C         1.0       0.8363296443073356  0.9500154432437098  0.3685965650427701 1.0000   
         C         C         1.0       0.8244906415252142  0.9470000513372071  0.32699711267579046          1.0000   
         C         C         1.0       0.8113200083109267  0.9580419192425167  0.3157627160358383 1.0000   
         C         C         1.0       0.8090941260265353  0.972291476478547   0.34903760977232523          1.0000   
         C         C         1.0       0.8214191145402941  0.9755748888563899  0.39040676922196027          1.0000   
         C         C         1.0       0.8342090130973909  0.9646186463731511  0.39976982354358415          1.0000   
         C         C         1.0       0.791931102703921   0.0008060651094252691        0.3753075944067155 1.0000   
         C         C         1.0       0.7791330256204654  0.006787099322143497         0.41149534338392446          1.0000   
         C         C         1.0       0.7767047076260712  0.023322453409887478         0.4186761665737517 1.0000   
         C         C         1.0       0.7870815098893796  0.03475214616005018           0.3916093747729401 1.0000   
         C         C         1.0       0.8003479299934524  0.028946549770164864         0.36041940155085994          1.0000   
         C         C         1.0       0.8032984872736687  0.012438538677238764         0.35300284116025654          1.0000   
         C         C         1.0       0.7950106732956921  0.9866408713092824  0.24005258351102948          1.0000   
         C         C         1.0       0.7883767174285615  0.9890989419292384  0.18681365368525077          1.0000   
         C         C         1.0       0.7722578116274992  0.9942923443457153  0.181720580940065  1.0000   
         C         C         1.0       0.7620214286893273  0.995114231286796   0.22715191475256147          1.0000   
         C         C         1.0       0.7683297874925128  0.9922434620016916  0.2796033634497684 1.0000   
         C         C         1.0       0.7851133768908497  0.9871532688671606  0.28684347226101503          1.0000   
         H         H         1.0       0.7845070034097031  0.898173897114031   0.5412984945706436 1.0000   
         H         H         1.0       0.8094449470105863  0.9303333923683822  0.4196999288210508 1.0000   
         H         H         1.0       0.8348438046690401  0.928197616536148   0.4702510941951849 1.0000   
         H         H         1.0       0.8124158754170935  0.8936693506168468  0.583561390466532  1.0000   
         H         H         1.0       0.7700581235552946  0.9315388925321209  0.5467846516562073 1.0000   
         H         H         1.0       0.7464673220119571  0.9306417153665614  0.6078373237671634 1.0000   
         H         H         1.0       0.7251820569268926  0.8937548731869244  0.4981697551930178 1.0000   
         H         H         1.0       0.7453515395351734  0.8982276751658872  0.4307501431518427 1.0000   
         H         H         1.0       0.7608595530991223  0.9330288638362276  0.3501452878326017 1.0000   
         H         H         1.0       0.7649291852013673  0.9603265270763449  0.3134332124049543 1.0000   
         H         H         1.0       0.7923873162757263  0.9754993862923801  0.45806420067173753          1.0000   
         H         H         1.0       0.7881903829381274  0.9492727462713495  0.49954922337832364          1.0000   
         H         H         1.0       0.8252387574184022  0.9357910630283099  0.30147539618215385          1.0000   
         H         H         1.0       0.8017713708477465  0.95476957289432    0.28582282236023077          1.0000   
         H         H         1.0       0.8218391656235621  0.9878448702752445  0.41441755612760306          1.0000   
         H         H         1.0       0.8430466136233878  0.9697723208352775  0.42571639231558767          1.0000   
         H         H         1.0       0.7697203461017709  0.9981959648134595  0.4306314739611811 1.0000   
         H         H         1.0       0.7683182791680747  0.02822710065497125           0.44891964404439205          1.0000   
         H         H         1.0       0.808236336942865   0.03829103248900201           0.3343985821635789 1.0000   
         H         H         1.0       0.8104893553346253  0.009163846214135463         0.3175985160594709 1.0000   
         H         H         1.0       0.8078655287997859  0.9831414370951336  0.24113939064902093          1.0000   
         H         H         1.0       0.7962059337518292  0.9858184853217307  0.1525839649539096 1.0000   
         H         H         1.0       0.7492949133588123  0.9977814134303725  0.2217368118685896 1.0000   
         H         H         1.0       0.7607241637300521  0.992021360934909   0.31640868442571   1.0000   
         C         C         1.0       0.8173408969155473  0.8851757390431921  0.04149295874740355          1.0000   
         C         C         1.0       0.8009763572783384  0.8914037633984203  0.046956668268422375         1.0000   
         C         C         1.0       0.797250202857864   0.9073704254647428  0.027629986951129837         1.0000   
         C         C         1.0       0.8095961319141546  0.9187038011921433  0.011422791282663214         1.0000   
         C         C         1.0       0.8257747357129491  0.9124376480190819  0.01031728287572653          1.0000   
         C         C         1.0       0.8296096252006347  0.8958308222731802  0.02100538929795337          1.0000   
         H         H         1.0       0.7904285663939117  0.8833503758064022  0.05816118100124834          1.0000   
         H         H         1.0       0.7842593330809058  0.9112025162534362  0.026808559908417573         1.0000   
         H         H         1.0       0.8368663733133581  0.920075341310731   0.0013753489987280432        1.0000   
         H         H         1.0       0.8434431006479001  0.8918967060552274  0.021889975339239198         1.0000   
         C         C         1.0       0.8306597908086124  0.9513719392192121  0.03830660789739837          1.0000   
         C         C         1.0       0.8213993227911041  0.9491295386942273  0.9895805734416869 1.0000   
         C         C         1.0       0.824933630203395   0.9593912021767729  0.9438434286565306 1.0000   
         C         C         1.0       0.8372296632981925  0.97145583714672    0.9477612112760206 1.0000   
         C         C         1.0       0.8474638860519603  0.9720406502472493  0.9966356899575353 1.0000   
         C         C         1.0       0.8443220273047444  0.9615822470556077  0.04155058565001979          1.0000   
         C         C         1.0       0.8052596531670715  0.936494565952948   0.9884787872531475 1.0000   
         C         C         1.0       0.7918597157058777  0.9484163081767365  0.02020187072548696          1.0000   
         C         C         1.0       0.784995961573241   0.9628251387569252  0.9951633098175491 1.0000   
         C         C         1.0       0.7728037822801173  0.9714727676665657  0.02377163988690678          1.0000   
         C         C         1.0       0.7688974581740948  0.9680354184619345  0.07866981565836051          1.0000   
         C         C         1.0       0.7771541060071093  0.9550846080963282  0.10594916451939129          1.0000   
         C         C         1.0       0.787922311923877   0.9450336449384996  0.07574125889377226          1.0000   
         C         C         1.0       0.8091617581160357  0.9269247212216813  0.8800265556215846 1.0000   
         C         C         1.0       0.8033705903455577  0.9293547960881996  0.8265181739135539 1.0000   
         C         C         1.0       0.7866014528010173  0.9345444478991175  0.816234774420036  1.0000   
         C         C         1.0       0.7752702848258065  0.9349940044930783  0.8612840557491709 1.0000   
         C         C         1.0       0.7807109718921406  0.9325647882644045  0.9146354744661185 1.0000   
         C         C         1.0       0.7982838049521387  0.9320652571546157  0.9255319698429662 1.0000   
         C         C         1.0       0.7812996147562371  0.9416627923771224  0.7573231262795583 1.0000   
         C         C         1.0       0.818338647378661   0.957325942774727   0.6318528691139556 1.0000   
         C         C         1.0       0.8060911980329964  0.9466523971559039  0.6159463629449401 1.0000   
         C         C         1.0       0.7953427720992756  0.940377188659644   0.6568557123093672 1.0000   
         C         C         1.0       0.7967683682481559  0.9445161203443572  0.7133063832902492 1.0000   
         C         C         1.0       0.8108541681755312  0.9542929575310213  0.7279665911262949 1.0000   
         C         C         1.0       0.8216092601358557  0.9596849588950995  0.6867109732624863 1.0000   
         C         C         1.0       0.7756118385479125  0.9614250587843794  0.756918955773189  1.0000   
         C         C         1.0       0.7804144639837223  0.97224362165455    0.8008569746660139 1.0000   
         C         C         1.0       0.7779248391956398  0.9894114188544962  0.7968227081014441 1.0000   
         C         C         1.0       0.7720039876681263  0.9959650807008152  0.7461429257571154 1.0000   
         C         C         1.0       0.7675423353303186  0.9858607982574582  0.7025117519874831 1.0000   
         C         C         1.0       0.7688881727909737  0.9688818150303536  0.7086037013990026 1.0000   
         C         C         1.0       0.7497718417583081  0.9342465039209231  0.7422202524035137 1.0000   
         C         C         1.0       0.7370213403629018  0.9240236975779286  0.7222598261498981 1.0000   
         C         C         1.0       0.740328513694447   0.9093833382704429  0.6943541569480248 1.0000   
         C         C         1.0       0.7569733787207319  0.9041388986377591  0.6940542037742736 1.0000   
         C         C         1.0       0.7702599647141178  0.9130010774945518  0.7161134383081867 1.0000   
         C         C         1.0       0.7666096291642093  0.9296196922059372  0.7357399205069491 1.0000   
         H         H         1.0       0.8294096604225147  0.942448693701264   0.07253465632527956          1.0000   
         H         H         1.0       0.8205222557902515  0.9563801832741176  0.9031099797125828 1.0000   
         H         H         1.0       0.8399036734716143  0.9786262526693948  0.9105513354386559 1.0000   
         H         H         1.0       0.8502231564693808  0.9629055102972486  0.08249085904032505          1.0000   
         H         H         1.0       0.787583400521807   0.9659996489024162  0.9510929081124443 1.0000   
         H         H         1.0       0.7662293683569523  0.9802324968232038  0.9981603277895807 1.0000   
         H         H         1.0       0.7764110064720129  0.9531294481708934  0.1518002195958179 1.0000   
         H         H         1.0       0.7948849174896484  0.9359402999569666  0.09780109434317774          1.0000   
         H         H         1.0       0.8224852768624464  0.9236563683880913  0.8907450219366102 1.0000   
         H         H         1.0       0.8115348162548415  0.9261898765969178  0.7918737537532641 1.0000   
         H         H         1.0       0.7626832653857372  0.9401012070767883  0.8538978981272924 1.0000   
         H         H         1.0       0.7702159798992503  0.9340253921036752  0.9488486966519845 1.0000   
         H         H         1.0       0.8044215671550765  0.9426141993094928  0.5716608108332953 1.0000   
         H         H         1.0       0.7854276793374109  0.9331425118819718  0.6364257832962786 1.0000   
         H         H         1.0       0.8132358096550029  0.9574737710053639  0.7726760001652734 1.0000   
         H         H         1.0       0.8328625748612714  0.9669947416917645  0.6980406778334319 1.0000   
         H         H         1.0       0.785801093485476   0.9675458782131372  0.8385827870497863 1.0000   
         H         H         1.0       0.7818953520418853  0.9974438987947032  0.8325836616207978 1.0000   
         H         H         1.0       0.7635960471149401  0.991446480944289   0.6630641146728995 1.0000   
         H         H         1.0       0.7664802600023142  0.9607365411316319  0.6721721638205491 1.0000   
         H         H         1.0       0.745815006594995   0.9456381968893512  0.7643398900591581 1.0000   
         H         H         1.0       0.7246243165312722  0.9280843083019472  0.7218502258299527 1.0000   
         H         H         1.0       0.7606220264664655  0.8928081566855613  0.6728534978724521 1.0000   
         H         H         1.0       0.7834280019205282  0.9095822935741712  0.7068846195125932 1.0000   
         C         C         1.0       0.7850192395629679  0.8468940012171836  0.5698703084665597 1.0000   
         C         C         1.0       0.786388753172922   0.8552051162321781  0.5212050424329178 1.0000   
         C         C         1.0       0.7987379084431047  0.8505944566416841  0.4847859530210057 1.0000   
         C         C         1.0       0.8100722623380661  0.8377432739807915  0.4973925459910003 1.0000   
         C         C         1.0       0.8057890993866698  0.8273154537101427  0.5407905823654878 1.0000   
         C         C         1.0       0.7924772503660632  0.8314978100497189  0.5750156912246646 1.0000   
         H         H         1.0       0.7787743990022561  0.8662125804905881  0.5116134830763699 1.0000   
         H         H         1.0       0.8004493049308846  0.860251148127781   0.4504742025278027 1.0000   
         H         H         1.0       0.8126986725987344  0.8162687496400771  0.5511957568315305 1.0000   
         H         H         1.0       0.7894201362108977  0.8237601616287333  0.6121212343985355 1.0000   
         C         C         1.0       0.8445217729697029  0.8385613121157697  0.5578486049499392 1.0000   
         C         C         1.0       0.8439677693538405  0.834108426770229   0.499318881102332  1.0000   
         C         C         1.0       0.8592243767078667  0.8314711193793233  0.46992147209134444          1.0000   
         C         C         1.0       0.8739181023872401  0.8320897764667735  0.4995152424155356 1.0000   
         C         C         1.0       0.8742118446317704  0.8324743540421468  0.5583614551985367 1.0000   
         C         C         1.0       0.8592468618369903  0.8354909507167471  0.5851955276297042 1.0000   
         C         C         1.0       0.8260713235578685  0.8321797395258681  0.46264980725198335          1.0000   
         C         C         1.0       0.8299936094887748  0.8440376718385864  0.40939054361696026          1.0000   
         C         C         1.0       0.8321739547874306  0.8376164476714719  0.35480653369230003          1.0000   
         C         C         1.0       0.8298839527321256  0.846945539382779   0.3072012275594924 1.0000   
         C         C         1.0       0.8274909278602018  0.86331010150605    0.3123279526050404 1.0000   
         C         C         1.0       0.8285204887248374  0.8710185997733453  0.3648693457980296 1.0000   
         C         C         1.0       0.8299986171579486  0.8613152824381842  0.41224676826792483          1.0000   
         C         C         1.0       0.8325721540230704  0.8005075816118702  0.4520060307094161 1.0000   
         C         C         1.0       0.8312028869650442  0.7856360983700604  0.42118444769792335          1.0000   
         C         C         1.0       0.8210596329373799  0.7844084488015836  0.3761058534974162 1.0000   
         C         C         1.0       0.809681644219764   0.7975941227355499  0.3673265920873801 1.0000   
         C         C         1.0       0.8091844149228221  0.8113807511996282  0.40344842567748046          1.0000   
         C         C         1.0       0.8220772657924755  0.8138576164933382  0.439965962643319  1.0000   
         C         C         1.0       0.8244944561516009  0.7697600391028071  0.32923548533866337          1.0000   
         C         C         1.0       0.8704982319677513  0.7949063948474724  0.28206665379958656          1.0000   
         C         C         1.0       0.8718162044809518  0.7790808291277049  0.30116166454877236          1.0000   
         C         C         1.0       0.8569658315361388  0.7704583140270335  0.3154224593330063 1.0000   
         C         C         1.0       0.8412166634188339  0.7772863860833295  0.30259399329237   1.0000   
         C         C         1.0       0.8408620050427206  0.7919764637216851  0.27114903116696953          1.0000   
         C         C         1.0       0.8549910866937346  0.8009815019325283  0.2621664696658515 1.0000   
         C         C         1.0       0.8096959842065337  0.7676157035487535  0.2843505579676447 1.0000   
         C         C         1.0       0.7929699149194727  0.7652033058900689  0.30363960385025496          1.0000   
         C         C         1.0       0.7805555235905547  0.7602819631849926  0.2654763626894603 1.0000   
         C         C         1.0       0.7845613520879668  0.7579228153369688  0.20923737158341943          1.0000   
         C         C         1.0       0.8006003302566267  0.7586378437282821  0.19251451412037413          1.0000   
         C         C         1.0       0.8130336742691916  0.7636644630594144  0.2293552676110313 1.0000   
         C         C         1.0       0.8304950701760836  0.737825611652967   0.3193506889362738 1.0000   
         C         C         1.0       0.8270833263457679  0.7217163481189559  0.33506297337976326          1.0000   
         C         C         1.0       0.819337779684132   0.7177289190203369  0.3887618083897582 1.0000   
         C         C         1.0       0.8142981538014256  0.7308436418088081  0.4203795058505482 1.0000   
         C         C         1.0       0.817172079059152   0.7469566179163988  0.4042327252460721 1.0000   
         C         C         1.0       0.8245931574591311  0.7513422267003693  0.35380748055739925          1.0000   
         H         H         1.0       0.8332445639287106  0.8432827336548565  0.5797363510069382 1.0000   
         H         H         1.0       0.8606686613269228  0.8301805218355706  0.42633849726503154          1.0000   
         H         H         1.0       0.8854196371241155  0.8317230236490974  0.4762733291787148 1.0000   
         H         H         1.0       0.8602402712613161  0.8361637522701266  0.6321798357686657 1.0000   
         H         H         1.0       0.8353325625278627  0.8245821155908344  0.3484834744696951 1.0000   
         H         H         1.0       0.8281681307215754  0.8401366408069691  0.26641446754500714          1.0000   
         H         H         1.0       0.8269503070701341  0.884852307869333   0.3700504158717301 1.0000   
         H         H         1.0       0.8297316774820698  0.868501993202222   0.4535713269741746 1.0000   
         H         H         1.0       0.8415523816431378  0.8024499002214881  0.48463441995315143          1.0000   
         H         H         1.0       0.8402096150171874  0.7752619741369082  0.4274077380713071 1.0000   
         H         H         1.0       0.8020173792791857  0.7984617761918007  0.3283336269156558 1.0000   
         H         H         1.0       0.8014638069332963  0.8227446528751929  0.3901481642435692 1.0000   
         H         H         1.0       0.8833271496769913  0.7739372446851612  0.3180243303768219 1.0000   
         H         H         1.0       0.8583532769192663  0.7591008446527279  0.33898731244482666          1.0000   
         H         H         1.0       0.8285325697661432  0.7979595081764694  0.26427309133138843          1.0000   
         H         H         1.0       0.8537455686971895  0.812983974261854   0.24052297238120982          1.0000   
         H         H         1.0       0.7883282822548768  0.7661350301197536  0.3464252731832671 1.0000   
         H         H         1.0       0.7684009514642101  0.7606008737510577  0.28242227903814326          1.0000   
         H         H         1.0       0.8051926903846773  0.7550195649261574  0.1513446684485745 1.0000   
         H         H         1.0       0.8263666396365539  0.7620337471065934  0.2190355024904442 1.0000   
         H         H         1.0       0.8344926184294809  0.7411020962099134  0.2785224121731188 1.0000   
         H         H         1.0       0.8299746267111876  0.7108619730233334  0.30920478607748875          1.0000   
         H         H         1.0       0.8091756882403716  0.7291754861409132  0.4633451837025731 1.0000   
         H         H         1.0       0.8111062637665049  0.7558728424037096  0.43186985915036324          1.0000   
         C         C         1.0       0.7774667469811307  0.7724928450516404  0.08131697037113472          1.0000   
         C         C         1.0       0.7799119827179279  0.7900423359507616  0.08125131855703938          1.0000   
         C         C         1.0       0.7940089685252408  0.7966374837007917  0.056548270837271764         1.0000   
         C         C         1.0       0.8057768501247469  0.7870480575440006  0.028157468964874033         1.0000   
         C         C         1.0       0.8007754043532481  0.7700035781842847  0.018394383181958407         1.0000   
         C         C         1.0       0.7869965383508557  0.7631927039664783  0.046528315648801444         1.0000   
         H         H         1.0       0.7723215716723176  0.799456715461719   0.10296616969831218          1.0000   
         H         H         1.0       0.7960469670247068  0.8099458095534328  0.06234868306793162          1.0000   
         H         H         1.0       0.8099974270131555  0.7618820395292862  0.9961405860804636 1.0000   
         H         H         1.0       0.7850927583666588  0.7498099518736803  0.042022767450985654         1.0000   
         C         C         1.0       0.8359210376675954  0.7711758855524473  0.08150891291119544          1.0000   
         C         C         1.0       0.8383511926251721  0.7788083542268092  0.029014827011360378         1.0000   
         C         C         1.0       0.8517814290199127  0.7740358118176056  0.9941069523947398 1.0000   
         C         C         1.0       0.8617758991801749  0.760613355815389   0.012025525910505097         1.0000   
         C         C         1.0       0.8585635473445306  0.7520994064978751  0.06090282767683397          1.0000   
         C         C         1.0       0.845416420432944   0.7578208234322309  0.09743733191063186          1.0000   
         C         C         1.0       0.8245104009554093  0.7932401567676284  0.012461489209086851         1.0000   
         C         C         1.0       0.8316802753258592  0.8093709318814932  0.045310110175610374         1.0000   
         C         C         1.0       0.843803686435672   0.8193290045542924  0.017463184243688534         1.0000   
         C         C         1.0       0.8457427542179771  0.8356513299013196  0.033757602267848075         1.0000   
         C         C         1.0       0.8370167519659552  0.8420753823302913  0.07945992501341537          1.0000   
         C         C         1.0       0.8285623562624196  0.8307779679251528  0.11537777959249174          1.0000   
         C         C         1.0       0.826423030644994   0.8142723761374736  0.09948618083348215          1.0000   
         C         C         1.0       0.8234042637402856  0.784619281272545   0.9053239111295858 1.0000   
         C         C         1.0       0.8242907120144287  0.7882331277886     0.8469993049185437 1.0000   
         C         C         1.0       0.8216352545719295  0.8043863187850773  0.8298776819960507 1.0000   
         C         C         1.0       0.8170077936442156  0.8163741509546537  0.8699988966646807 1.0000   
         C         C         1.0       0.8164362369968409  0.8128179686518633  0.926953504489393  1.0000   
         C         C         1.0       0.8221700261992884  0.7967916489589142  0.9459710052033243 1.0000   
         C         C         1.0       0.8270263180073887  0.8092907174042338  0.7681994793814856 1.0000   
         C         C         1.0       0.8813726980179712  0.8152091253445496  0.8030759303812325 1.0000   
         C         C         1.0       0.8751218190713226  0.8002777620740615  0.778088501846662  1.0000   
         C         C         1.0       0.8582652599099078  0.7981742926429612  0.766403305783609  1.0000   
         C         C         1.0       0.8471463221777298  0.8117958584340317  0.7768941646848573 1.0000   
         C         C         1.0       0.85369774333331    0.8265394566330231  0.80021867678685   1.0000   
         C         C         1.0       0.8703536603164397  0.8285417407392355  0.8108131424121447 1.0000   
         C         C         1.0       0.8166821839022063  0.8249181497455653  0.7477278367876207 1.0000   
         C         C         1.0       0.7992110627826344  0.8252210151697005  0.7531178317990267 1.0000   
         C         C         1.0       0.7891570900284245  0.8373992530980702  0.732438015593894  1.0000   
         C         C         1.0       0.7964007792256473  0.8505186679408255  0.7031413830235044 1.0000   
         C         C         1.0       0.8137084089726309  0.8497957711991069  0.6921569671356795 1.0000   
         C         C         1.0       0.8231090266360883  0.8375732037131535  0.7128857214515361 1.0000   
         C         C         1.0       0.831262845877835   0.7975032505395023  0.6717356174625968 1.0000   
         C         C         1.0       0.8282092453105557  0.7873057078697323  0.6253783901366724 1.0000   
         C         C         1.0       0.8151678646415101  0.7753984853919503  0.6296402839123592 1.0000   
         C         C         1.0       0.8070721576538828  0.7736727057629473  0.681224081209172  1.0000   
         C         C         1.0       0.8097556240742353  0.7854329345684324  0.7233074175469296 1.0000   
         C         C         1.0       0.8223265437672996  0.7964415765003342  0.7206313973219266 1.0000   
         H         H         1.0       0.8260841699768385  0.7740179377248453  0.10933032274287702          1.0000   
         H         H         1.0       0.8542590478547597  0.7790169535191658  0.9520923034158655 1.0000   
         H         H         1.0       0.871438240170036   0.7551687556182487  0.9860596002302433 1.0000   
         H         H         1.0       0.8417065309069807  0.7516645522479308  0.13396588889303457          1.0000   
         H         H         1.0       0.8492406808647354  0.8150363541209965  0.9772641616149261 1.0000   
         H         H         1.0       0.8532928944625623  0.8439720684344265  0.006428942392842085         1.0000   
         H         H         1.0       0.8208399374400606  0.8345786956929983  0.15072046775896708          1.0000   
         H         H         1.0       0.8202668216734087  0.8052459424566568  0.1253954206890009 1.0000   
         H         H         1.0       0.8264954395861684  0.7714621320576165  0.9190006046410429 1.0000   
         H         H         1.0       0.8269001255333924  0.7772710875970302  0.8215824531326834 1.0000   
         H         H         1.0       0.8170011321779338  0.8295272331803683  0.8595238218334567 1.0000   
         H         H         1.0       0.8134113671042279  0.821888948770733   0.9566106583421712 1.0000   
         H         H         1.0       0.884133718351038   0.79069486928338    0.7729700441840841 1.0000   
         H         H         1.0       0.8544884099855447  0.7865549414915581  0.7491345099657923 1.0000   
         H         H         1.0       0.844507022710617   0.8363888724360292  0.8132964223711094 1.0000   
         H         H         1.0       0.8748298257653196  0.8402955607216221  0.8333818509068893 1.0000   
         H         H         1.0       0.7926293629665869  0.816031829955345   0.780637403935502  1.0000   
         H         H         1.0       0.7754052309894405  0.8364593206971849  0.7419318369801567 1.0000   
         H         H         1.0       0.8207294798280252  0.8589037047496789  0.6681259896373424 1.0000   
         H         H         1.0       0.8361158350969208  0.837465200382318   0.7010354232973071 1.0000   
         H         H         1.0       0.8414478363032349  0.8067271909975385  0.6640302750324076 1.0000   
         H         H         1.0       0.8347267112162415  0.7890394374895894  0.5838175436235471 1.0000   
         H         H         1.0       0.798092040643316   0.7635516054734369  0.6889551756143916 1.0000   
         H         H         1.0       0.8037111947020353  0.7834997559437529  0.7642323790078508 1.0000   
         C         C         1.0       0.0326446398743192  0.6719476932422427  0.46100373011300355          1.0000   
         C         C         1.0       0.03192884694439724           0.6829340902358956 0.416939243867519  1.0000   
         C         C         1.0       0.03676786038021751           0.6775873816058267 0.3621880502093498 1.0000   
         C         C         1.0       0.0417171419108493  0.6611125305186418  0.3521916958208606 1.0000   
         C         C         1.0       0.043323794384061864          0.6506747486622396 0.39845380249064855          1.0000   
         C         C         1.0       0.038954912852071866          0.6563209263990215 0.45127602408358697          1.0000   
         H         H         1.0       0.025813633597161045          0.6948373797346528 0.42862578062603174          1.0000   
         H         H         1.0       0.03495939539859427           0.6863828498778208 0.32888951013061796          1.0000   
         H         H         1.0       0.046962514686406776          0.6376160287656591 0.3927893426155661 1.0000   
         H         H         1.0       0.04009302547654636           0.6483956222263005 0.487395530145665  1.0000   
         C         C         1.0       0.06516545695174392           0.6316184915688421 0.29774911366787143          1.0000   
         C         C         1.0       0.04809419978194329           0.6351466227429619 0.2855046919709687 1.0000   
         C         C         1.0       0.03871272295414596           0.6215307425401708 0.26601982892923826          1.0000   
         C         C         1.0       0.04530983831842961           0.6050290543362614 0.26752427806235196          1.0000   
         C         C         1.0       0.06133932074798265           0.6020028290338858 0.28470434231160074          1.0000   
         C         C         1.0       0.07146056548445823           0.615547288476341  0.29956662669895884          1.0000   
         C         C         1.0       0.03975236755789924           0.653076225077928  0.28933465519314433          1.0000   
         C         C         1.0       0.04891009988694961           0.6622844347407915 0.2369167636914856 1.0000   
         C         C         1.0       0.04650029097445674           0.6578611853177604 0.1820782306793738 1.0000   
         C         C         1.0       0.0540671951613223  0.666379988439807   0.1386792784473733 1.0000   
         C         C         1.0       0.06416125795949679           0.6799300641573082 0.14923262543507967          1.0000   
         C         C         1.0       0.0667448000409614  0.6856427801607659  0.2028937675850886 1.0000   
         C         C         1.0       0.059334495668987186          0.6764165380215299 0.24619872793319017          1.0000   
         C         C         1.0       0.010238379918002138          0.6453949973433675 0.3209068898999662 1.0000   
         C         C         1.0       0.9934908333736585  0.6480946454521201  0.3298012191370597 1.0000   
         C         C         1.0       0.9849615797430978  0.6588576178345624  0.29267162670066477          1.0000   
         C         C         1.0       0.9931549445403665  0.6653425975797573  0.24441068011184292          1.0000   
         C         C         1.0       0.010645439964496406          0.6648027552040702 0.24559802112833404          1.0000   
         C         C         1.0       0.0197268583009913  0.6549123198463008  0.2830874530819448 1.0000   
         C         C         1.0       0.9652850167966364  0.6626263673569497  0.3015430267173598 1.0000   
         C         C         1.0       0.9527207790565174  0.6092629184962658  0.29911734695902364          1.0000   
         C         C         1.0       0.9505832934181341  0.6179845944320099  0.3471802398862569 1.0000   
         C         C         1.0       0.9519634246332916  0.6351368987634973  0.3498315738314438 1.0000   
         C         C         1.0       0.9583551785067955  0.6434015188087858  0.3026459697037863 1.0000   
         C         C         1.0       0.9584887917185196  0.6342870918202298  0.25197544434518776          1.0000   
         C         C         1.0       0.9565314908348928  0.6174056164109973  0.24981430070005006          1.0000   
         C         C         1.0       0.9559074703729894  0.6729434804118264  0.25249458869022656          1.0000   
         C         C         1.0       0.9624476997062537  0.6886394724141792  0.2382281035571229 1.0000   
         C         C         1.0       0.9553640728135666  0.6993800003695555  0.1996701309520523 1.0000   
         C         C         1.0       0.9404767122337825  0.6942956622775078  0.1739779087067419 1.0000   
         C         C         1.0       0.9329493447511368  0.6796994583199782  0.19253290066734952          1.0000   
         C         C         1.0       0.9400175135542398  0.6695767137929046  0.23122379450100142          1.0000   
         C         C         1.0       0.946569904852636   0.6739746559305465  0.38221563772093187          1.0000   
         C         C         1.0       0.9447435948618498  0.6830845992559778  0.4318576658632133 1.0000   
         C         C         1.0       0.9567899146134745  0.6921780440074194  0.4573329168565034 1.0000   
         C         C         1.0       0.9723688501140912  0.6924516694605334  0.42993365271582085          1.0000   
         C         C         1.0       0.9746759286172549  0.6835540193329298  0.37916918719993353          1.0000   
         C         C         1.0       0.9624468581125266  0.6733482803624992  0.3571627865582805 1.0000   
         H         H         1.0       0.07357647579953408           0.6416962735985884 0.30543513382526366          1.0000   
         H         H         1.0       0.025723015343494637          0.6224772539023175 0.2547489541636339 1.0000   
         H         H         1.0       0.036780588189498475          0.5946621741671726 0.25498365028393366          1.0000   
         H         H         1.0       0.08368704695178719           0.6149218300554851 0.3178669477263466 1.0000   
         H         H         1.0       0.038586235714887396          0.6473333977460761 0.1760352529580964 1.0000   
         H         H         1.0       0.050997139693640614          0.6623791406086226 0.0937216049033931 1.0000   
         H         H         1.0       0.07768328877105168           0.6937292082705033 0.2156819140559474 1.0000   
         H         H         1.0       0.06365163600744506           0.680393840434015  0.2866350825200267 1.0000   
         H         H         1.0       0.016244327445065654          0.6360132346726194 0.3440480035414133 1.0000   
         H         H         1.0       0.9868702920846351  0.6427423372225378  0.36719100800124826          1.0000   
         H         H         1.0       0.9865602853165508  0.6715859954762614  0.2107763040497275 1.0000   
         H         H         1.0       0.016605120591803413          0.672896013257386  0.2143080066827474 1.0000   
         H         H         1.0       0.944946090958314   0.6127728254690759  0.383513925705285  1.0000   
         H         H         1.0       0.9496664839665279  0.6402650296248193  0.3910921361671163 1.0000   
         H         H         1.0       0.9615184439330908  0.6407179737400127  0.21352634739769258          1.0000   
         H         H         1.0       0.9551619568405685  0.6111970230292872  0.21079967033337635          1.0000   
         H         H         1.0       0.9726582214517611  0.6937175071986976  0.26542536317295934          1.0000   
         H         H         1.0       0.9626831275619266  0.7097394899748861  0.1805618748490573 1.0000   
         H         H         1.0       0.9214310932546661  0.675743640762696   0.1729937611754382 1.0000   
         H         H         1.0       0.9340682970942212  0.6575759449498824  0.24381028913256864          1.0000   
         H         H         1.0       0.93617736759674    0.6691507100906399  0.3602700376594477 1.0000   
         H         H         1.0       0.931988649017685   0.6832587446676105  0.450656139275239  1.0000   
         H         H         1.0       0.983398815690399   0.7000432033648055  0.43885294350533427          1.0000   
         H         H         1.0       0.987999274979051   0.6823344121516978  0.3672813996628902 1.0000   
         C         C         1.0       0.9470731700024384  0.6894694525116198  0.04013835408134092          1.0000   
         C         C         1.0       0.9553808239239927  0.6998780761338618  0.002139327302530969         1.0000   
         C         C         1.0       0.9707344487810614  0.6953025619041308  0.9779542565018455 1.0000   
         C         C         1.0       0.9785077552750648  0.680588720252765   0.9927545073432578 1.0000   
         C         C         1.0       0.9698691383649478  0.6696811104220637  0.028197337937870603         1.0000   
         C         C         1.0       0.954658464500654   0.6743171865236812  0.050099896499690155         1.0000   
         H         H         1.0       0.9500424072530914  0.7126609456254873  0.994820017311077  1.0000   
         H         H         1.0       0.9739224759704088  0.7044776451971031  0.944214067093684  1.0000   
         H         H         1.0       0.9742403522733991  0.6577877239798057  0.044749071848590116         1.0000   
         H         H         1.0       0.947561975306938   0.666496001969722   0.08000088832351149          1.0000   
         C         C         1.0       0.008694233839142917          0.6595505967427563 0.04604116344655962          1.0000   
         C         C         1.0       0.0065837086814803936         0.661135338096136  0.9883513350416749 1.0000   
         C         C         1.0       0.018518801925569983          0.6525218651455669 0.956209460642869  1.0000   
         C         C         1.0       0.0298069868132822  0.6420565166146424  0.980190284232046  1.0000   
         C         C         1.0       0.029157202726154186          0.6396890622266725 0.03955060093862328          1.0000   
         C         C         1.0       0.019063388055505337          0.6492775062486789 0.0741242574352603 1.0000   
         C         C         1.0       0.9959856594054295  0.6763229013602879  0.9596717895362192 1.0000   
         C         C         1.0       0.009059780383189997          0.6913955129674018 0.9522109599273001 1.0000   
         C         C         1.0       0.02180566228394354           0.6912430828530951 0.9089055149912494 1.0000   
         C         C         1.0       0.035567457780580236          0.7020240792523563 0.9095683886831528 1.0000   
         C         C         1.0       0.03736880362432471           0.7126794582614157 0.954635066164618  1.0000   
         C         C         1.0       0.02634440466723542           0.7119999611405922 0.9998856746483784 1.0000   
         C         C         1.0       0.01265047461412161           0.7018229780728025 0.9991779612829841 1.0000   
         C         C         1.0       0.9812397357343439  0.6550058179371753  0.8938881777049154 1.0000   
         C         C         1.0       0.9751063063066062  0.6502860845398671  0.8435351827488089 1.0000   
         C         C         1.0       0.9759793205769451  0.6597912458016333  0.7944090644876964 1.0000   
         C         C         1.0       0.9809224298146475  0.6768733642990454  0.8041947245264726 1.0000   
         C         C         1.0       0.9862886867481047  0.6821896682151313  0.8554065095496891 1.0000   
         C         C         1.0       0.9874104293434108  0.6714568877617534  0.9012703249730732 1.0000   
         C         C         1.0       0.9705666818961474  0.6538009947743688  0.7342391293345856 1.0000   
         C         C         1.0       0.9817501942389023  0.6007701152975737  0.6924002411923958 1.0000   
         C         C         1.0       0.9679547387007624  0.6091170826693387  0.6711382579579994 1.0000   
         C         C         1.0       0.963739461235099   0.6246420689999126  0.6882775472905986 1.0000   
         C         C         1.0       0.9743112310479632  0.6341996679041129  0.7212729934889321 1.0000   
         C         C         1.0       0.9884337028864374  0.6265384917068881  0.7425696074428663 1.0000   
         C         C         1.0       0.9919134674189906  0.6101601455265288  0.7303481273865612 1.0000   
         C         C         1.0       0.9797659207974628  0.6617311801983459  0.681234448530742  1.0000   
         C         C         1.0       0.9734111578287512  0.6610294357228548  0.6270505399036601 1.0000   
         C         C         1.0       0.9821027371138573  0.6662275330562909  0.5808385559772912 1.0000   
         C         C         1.0       0.9982218882028562  0.6728897053170645  0.5860221847371373 1.0000   
         C         C         1.0       0.005216025872164298          0.6735036186578729 0.640201641040932  1.0000   
         C         C         1.0       0.9968498760641961  0.6663171970933456  0.6868276025133279 1.0000   
         C         C         1.0       0.94526518231767    0.67463083683253    0.722327903899749  1.0000   
         C         C         1.0       0.9299747173312867  0.6801630108079435  0.7440654698978942 1.0000   
         C         C         1.0       0.9213294010391688  0.6707682227727231  0.7835350796653126 1.0000   
         C         C         1.0       0.9261119464118249  0.6547349388556771  0.7920577522220988 1.0000   
         C         C         1.0       0.9406626589211439  0.6492323221043429  0.7691666527362241 1.0000   
         C         C         1.0       0.9511793160195311  0.6590446805324598  0.7395302568742463 1.0000   
         H         H         1.0       0.002538249291764938          0.6682074297118474 0.07277060874908736          1.0000   
         H         H         1.0       0.019189930435826064          0.6535769316928108 0.910090759865506  1.0000   
         H         H         1.0       0.0373268552889523  0.6336172215379768  0.9543680992542637 1.0000   
         H         H         1.0       0.017781012942284624          0.647668198657236  0.11808093558072286          1.0000   
         H         H         1.0       0.020484788962773726          0.6819912921667719 0.8750203155224746 1.0000   
         H         H         1.0       0.04551773196796871           0.7013334695775499 0.8795890522811431 1.0000   
         H         H         1.0       0.029427295281983623          0.7201256013508203 0.0368489696298262 1.0000   
         H         H         1.0       0.003522734184420395          0.70194749157809   0.032992915461768524         1.0000   
         H         H         1.0       0.9807617467655768  0.6452148507365593  0.9245335268316118 1.0000   
         H         H         1.0       0.9711974750793944  0.637606219800145   0.8436592035755514 1.0000   
         H         H         1.0       0.9816286171816374  0.6850792605588489  0.7674033628988903 1.0000   
         H         H         1.0       0.9903469061815412  0.6952944538041463  0.8561391726063798 1.0000   
         H         H         1.0       0.9595739570301008  0.6019846345695106  0.6435055166718265 1.0000   
         H         H         1.0       0.9526891872214206  0.6306812351953727  0.6698069720323336 1.0000   
         H         H         1.0       0.9988186209217046  0.6337089299050618  0.7622233275615681 1.0000   
         H         H         1.0       0.0033694113198265985         0.6049718931295716 0.7493596095973989 1.0000   
         H         H         1.0       0.9610011511902958  0.6558165360976114  0.620724172299726  1.0000   
         H         H         1.0       0.9768891236273662  0.6659233485888353  0.5384353668694333 1.0000   
         H         H         1.0       0.017607974394943327          0.6785535400511139 0.6497424836575105 1.0000   
         H         H         1.0       0.0030857244726896216         0.6672077590516546 0.7279476962426512 1.0000   
         H         H         1.0       0.951944218007878   0.6835361773606454  0.6946881733916341 1.0000   
         H         H         1.0       0.926927399066757   0.6934195789605011  0.7372279752256219 1.0000   
         H         H         1.0       0.9190532193233263  0.6467169911271631  0.8257521396567785 1.0000   
         H         H         1.0       0.9447926948708307  0.6366411428335115  0.7768357787408532 1.0000   
         C         C         1.0       0.1016118638555068  0.6711704701943454  0.12743878516341303          1.0000   
         C         C         1.0       0.11297395754224288           0.6830866994183841 0.14270660730228657          1.0000   
         C         C         1.0       0.12419965551212589           0.6799529662161098 0.18457962521089433          1.0000   
         C         C         1.0       0.12312577334756947           0.665556034684592  0.2175989448724749 1.0000   
         C         C         1.0       0.10987733469271736           0.6545432796679207 0.20526324532433274          1.0000   
         C         C         1.0       0.09983816879276342           0.6571713066887643 0.1595217770860934 1.0000   
         H         H         1.0       0.11141856637314718           0.6966633680031572 0.12531878838142232          1.0000   
         H         H         1.0       0.13294999429477417           0.6904615315097163 0.19535158446010742          1.0000   
         H         H         1.0       0.10815958048649497           0.6426246614924379 0.22611570112433463          1.0000   
         H         H         1.0       0.08843246417067951           0.6490798035654591 0.15415314255602786          1.0000   
         C         C         1.0       0.14776403059081233           0.6365762165801045 0.32751049304992474          1.0000   
         C         C         1.0       0.1414852920641798  0.642364672453459   0.27689879899160347          1.0000   
         C         C         1.0       0.14167567739401693           0.6307909404749202 0.2319514251580709 1.0000   
         C         C         1.0       0.14605446208555578           0.6141873354852492 0.23894179537774554          1.0000   
         C         C         1.0       0.1523907596945772  0.609049847094186   0.29014407337096576          1.0000   
         C         C         1.0       0.1530748760344011  0.6199690511407557  0.3346863775542732 1.0000   
         C         C         1.0       0.1357673560907381  0.6616702314038717  0.2716848377605595 1.0000   
         C         C         1.0       0.12375789129281585           0.6679851114975384 0.3208617604318403 1.0000   
         C         C         1.0       0.1248698741180448  0.6841858876646477  0.344384547111812  1.0000   
         C         C         1.0       0.113850166724126   0.6896287579514941  0.38427762543895777          1.0000   
         C         C         1.0       0.10125717375854658           0.6787979318582039 0.40013299652635376          1.0000   
         C         C         1.0       0.09888137619969828           0.6631362717942041 0.37709887549931337          1.0000   
         C         C         1.0       0.11058620112502625           0.6579074018590929 0.3366024270264897 1.0000   
         C         C         1.0       0.1617494182385488  0.6681857842187039  0.20883106937837537          1.0000   
         C         C         1.0       0.17585362104298496           0.6780948299548648 0.1963967973724626 1.0000   
         C         C         1.0       0.18345960997545518           0.6883958249288505 0.23656170154950315          1.0000   
         C         C         1.0       0.17710836378339334           0.6863242218490981 0.29190779175190584          1.0000   
         C         C         1.0       0.1623888666944511  0.6778808040731293  0.3013136658872386 1.0000   
         C         C         1.0       0.15421309702724875           0.6695226401205132 0.26135406161051045          1.0000   
         C         C         1.0       0.1997253276534528  0.7000303037015388  0.21939032154580862          1.0000   
         C         C         1.0       0.2325227178079803  0.6569502928099193  0.24300317861639212          1.0000   
         C         C         1.0       0.22633220221172567           0.6610239092474208 0.18975005334029538          1.0000   
         C         C         1.0       0.21783458289318958           0.676277204654123  0.1822737274450561 1.0000   
         C         C         1.0       0.21400296359409626           0.6865558058556074 0.22675755999646124          1.0000   
         C         C         1.0       0.2207782549162363  0.6820400686831422  0.27880504907371906          1.0000   
         C         C         1.0       0.22874708032756422           0.6670358405115656 0.2879484647180342 1.0000   
         C         C         1.0       0.20277679600001094           0.7164544462409956 0.2553591277331624 1.0000   
         C         C         1.0       0.18944158421895113           0.7258246105073418 0.27835545305962983          1.0000   
         C         C         1.0       0.19277078907007777           0.7394842330394039 0.3118397112691955 1.0000   
         C         C         1.0       0.20867376353451664           0.7463254707873616 0.3191250383603338 1.0000   
         C         C         1.0       0.2217928778938653  0.7372471292984129  0.29735047188205843          1.0000   
         C         C         1.0       0.2190739074971547  0.7228933733177428  0.2642482448308307 1.0000   
         C         C         1.0       0.21279912627271308           0.7118295323208907 0.1259187219568929 1.0000   
         C         C         1.0       0.2113711574422042  0.7194122568817513  0.07437549934707333          1.0000   
         C         C         1.0       0.1958944325598619  0.7252944311023307  0.055560760935910114         1.0000   
         C         C         1.0       0.1817792173925112  0.7215504553635388  0.08540983278131553          1.0000   
         C         C         1.0       0.18269915631391453           0.7142199088327096 0.1359923820906803 1.0000   
         C         C         1.0       0.1977756408908766  0.7084139762214777  0.158135300326172  1.0000   
         H         H         1.0       0.14881672168265733           0.6451294376364715 0.36191713355326693          1.0000   
         H         H         1.0       0.13756776890488795           0.6351926690190556 0.1916242194542935 1.0000   
         H         H         1.0       0.14317441312491264           0.6053839584422405 0.20532391796644883          1.0000   
         H         H         1.0       0.15639457250456112           0.6147499119219606 0.3743253201686235 1.0000   
         H         H         1.0       0.13373987118256078           0.6932913976853848 0.3261486760766531 1.0000   
         H         H         1.0       0.11348930722141048           0.7024458636445451 0.40038707197709583          1.0000   
         H         H         1.0       0.08741421148700224           0.6555289525369633 0.385053566574238  1.0000   
         H         H         1.0       0.10828251072043901           0.6461300938996283 0.31550389890777036          1.0000   
         H         H         1.0       0.1545221359200756  0.6604716355871441  0.17627645440424716          1.0000   
         H         H         1.0       0.18096052310594005           0.6790401473398093 0.1549190998962218 1.0000   
         H         H         1.0       0.18188636521068627           0.6947947552789983 0.32529088170986886          1.0000   
         H         H         1.0       0.15795294775215343           0.6768793421042385 0.3447385183611785 1.0000   
         H         H         1.0       0.22611276881343642           0.6514393012889453 0.15719967570074167          1.0000   
         H         H         1.0       0.2125174273960312  0.6786729512251263  0.14192384727527196          1.0000   
         H         H         1.0       0.21966693198654758           0.6887631378845575 0.3180179540615674 1.0000   
         H         H         1.0       0.23100613222994432           0.6633685620746008 0.33086582330461073          1.0000   
         H         H         1.0       0.1762986102874073  0.721213986588317   0.2705970793885428 1.0000   
         H         H         1.0       0.18218810798672183           0.7450904891593638 0.33205229870727143          1.0000   
         H         H         1.0       0.2353821362369716  0.7422849344341081  0.30461984172862605          1.0000   
         H         H         1.0       0.2299835374806971  0.7157671654783893  0.2480791758630057 1.0000   
         H         H         1.0       0.22517542873860108           0.7083208398130342 0.13981927656685067          1.0000   
         H         H         1.0       0.2234940676432346  0.720273486705625   0.04737592651544076          1.0000   
         H         H         1.0       0.16974065559071946           0.7269378754188429 0.0736483871723681 1.0000   
         H         H         1.0       0.17157311635847478           0.7140716915566434 0.16001160768841174          1.0000   
         C         C         1.0       0.07891651043640557           0.7228400356076394 0.8933133225099782 1.0000   
         C         C         1.0       0.09227388878850418           0.7334619514532119 0.8754047232013275 1.0000   
         C         C         1.0       0.1076955881996214  0.726634373729159   0.867454908544858  1.0000   
         C         C         1.0       0.11046435183608647           0.7091642245619814 0.8720896306823601 1.0000   
         C         C         1.0       0.09606489086715464           0.6995116090590737 0.8772373403984703 1.0000   
         C         C         1.0       0.08067752118028881           0.7056922646773395 0.893908127737634  1.0000   
         H         H         1.0       0.09123410704303692           0.7469798396186609 0.871788370420469  1.0000   
         H         H         1.0       0.11780715309036631           0.7353164082691265 0.8565723350894896 1.0000   
         H         H         1.0       0.0974173951724846  0.6864969263601125  0.8739085192797064 1.0000   
         H         H         1.0       0.07091505021462297           0.6965755962275194 0.9039504242437465 1.0000   
         C         C         1.0       0.12565077093374    0.6808553871739977  0.9501441243828412 1.0000   
         C         C         1.0       0.13350738770557494           0.6846054789178887 0.898313778206804  1.0000   
         C         C         1.0       0.1462009533680796  0.6737453186147148  0.884396389239376  1.0000   
         C         C         1.0       0.14931182266256154           0.6594955524459426 0.91066773983233   1.0000   
         C         C         1.0       0.14090970356751428           0.6549752150811007 0.9584777523810477 1.0000   
         C         C         1.0       0.12864278580403662           0.66569113594352   0.9787912772170188 1.0000   
         C         C         1.0       0.12914198756454684           0.7017586636756278 0.8649548220567965 1.0000   
         C         C         1.0       0.14320661063260198           0.7137922012713033 0.8976232419632252 1.0000   
         C         C         1.0       0.1594543608048443  0.7138802247443887  0.8785690277802112 1.0000   
         C         C         1.0       0.17131191871479073           0.725050091752793  0.9035341776667082 1.0000   
         C         C         1.0       0.16742550515472404           0.7328267626053719 0.9530740099550695 1.0000   
         C         C         1.0       0.15134161275928873           0.7310745537810271 0.9772919452336147 1.0000   
         C         C         1.0       0.13963686057525185           0.7223019025351299 0.947523701243647  1.0000   
         C         C         1.0       0.1299391810509958  0.6843470853996387  0.7705185373650765 1.0000   
         C         C         1.0       0.13451081435397147           0.682642626272259  0.7141317467709856 1.0000   
         C         C         1.0       0.1395391420948171  0.6967720009001858  0.6832922682471798 1.0000   
         C         C         1.0       0.1389117258083412  0.7129345141438923  0.7086485725668443 1.0000   
         C         C         1.0       0.13614754469840895           0.7139956577607756 0.7653518934470658 1.0000   
         C         C         1.0       0.1313216164755753  0.7000409826966822  0.7982620507000286 1.0000   
         C         C         1.0       0.14512131651752017           0.6940973032935037 0.6199670838200065 1.0000   
         C         C         1.0       0.17549367209321196           0.648778219701905  0.5855670134635591 1.0000   
         C         C         1.0       0.16577702514613563           0.6559289278292023 0.5443881519925241 1.0000   
         C         C         1.0       0.1560104245356835  0.6694944669440643  0.5540050089874825 1.0000   
         C         C         1.0       0.156473105859868   0.6782897588512706  0.6051597484886271 1.0000   
         C         C         1.0       0.16768709460540288           0.6721712799048398 0.6453136685726183 1.0000   
         C         C         1.0       0.17522541308641318           0.6567198333265261 0.6373029757494811 1.0000   
         C         C         1.0       0.15779175400031265           0.7075422181135839 0.5934644802235317 1.0000   
         C         C         1.0       0.17030780467397774           0.7159008693218909 0.6220874897614876 1.0000   
         C         C         1.0       0.18179974807296004           0.7272758417821081 0.6003899513195045 1.0000   
         C         C         1.0       0.18225076076939448           0.7290655940454902 0.5438458077345028 1.0000   
         C         C         1.0       0.17068519040476277           0.7204781169181488 0.5096870481674285 1.0000   
         C         C         1.0       0.15833991383730026           0.709408642591853  0.5345078077239712 1.0000   
         C         C         1.0       0.1181621016707757  0.7068937340547705  0.566457279699917  1.0000   
         C         C         1.0       0.10363374372758538           0.7047789422048397 0.534033339057885  1.0000   
         C         C         1.0       0.09660755412396749           0.6889480557113105 0.5300136387285359 1.0000   
         C         C         1.0       0.1028538722442416  0.6760027130458119  0.5611314849550714 1.0000   
         C         C         1.0       0.11762378550230201           0.6778883549240895 0.5908095209274566 1.0000   
         C         C         1.0       0.12666725645178087           0.6930169907698444 0.5879053248018119 1.0000   
         H         H         1.0       0.11727236398445887           0.6897217375382099 0.9655418028603    1.0000   
         H         H         1.0       0.15365719817837173           0.677828823540976  0.8483061806069021 1.0000   
         H         H         1.0       0.1599732330582771  0.6519299186322647  0.8931908103180586 1.0000   
         H         H         1.0       0.11999182423832597           0.6614162818149975 0.012764371858449142         1.0000   
         H         H         1.0       0.1635632654721459  0.7079946736364449  0.841057873484685  1.0000   
         H         H         1.0       0.1832293193529057  0.7270377314690905  0.8836483832519113 1.0000   
         H         H         1.0       0.14781027119308807           0.738058981690707  0.015346551999080527         1.0000   
         H         H         1.0       0.12691832022522861           0.7231558235008259 0.9646510660421527 1.0000   
         H         H         1.0       0.12384189707449847           0.6734231342156983 0.7910055912198962 1.0000   
         H         H         1.0       0.13381370795614667           0.670279282869412  0.6934864995510565 1.0000   
         H         H         1.0       0.14384296544947578           0.723589876174816  0.686043306926504  1.0000   
         H         H         1.0       0.13864617640994273           0.7260231834066668 0.7864247956179152 1.0000   
         H         H         1.0       0.16558944367301207           0.649591434334361  0.5011651015969247 1.0000   
         H         H         1.0       0.14744416771841246           0.6732529784874705 0.521241263678013  1.0000   
         H         H         1.0       0.16960556618057213           0.6774905834825885 0.6863145448179213 1.0000   
         H         H         1.0       0.18219880182108833           0.6495773011648963 0.6691923926307575 1.0000   
         H         H         1.0       0.1712874760623572  0.7130760019623728  0.6680344759729675 1.0000   
         H         H         1.0       0.1913316820112207  0.7346999583988162  0.6235996731295953 1.0000   
         H         H         1.0       0.16943722409047332           0.7237006009538611 0.46565894317619316          1.0000   
         H         H         1.0       0.14938187541170195           0.7030241364782501 0.5046434558772132 1.0000   
         H         H         1.0       0.12502587293825146           0.7189364326868641 0.566188602079933  1.0000   
         H         H         1.0       0.09864582387030518           0.7159874192998547 0.509514565479971  1.0000   
         H         H         1.0       0.09738480633401103           0.6641777676343489 0.5587992338144334 1.0000   
         H         H         1.0       0.1226410964311938  0.6665804294690167  0.6078879232504529 1.0000   
         C         C         1.0       0.0015507722286673964         0.4870046722724385 0.3775184029558589 1.0000   
         C         C         1.0       0.01508528633067674           0.4771891502480965 0.39286982355036   1.0000   
         C         C         1.0       0.02986610190350225           0.4845851013401164 0.41153744783305757          1.0000   
         C         C         1.0       0.031624303920188   0.501503291197722   0.4178335391075893 1.0000   
         C         C         1.0       0.016748660548400407          0.5110121518528439 0.408325195954393  1.0000   
         C         C         1.0       0.0021772018307015806         0.5039673113253436 0.38812908395102813          1.0000   
         H         H         1.0       0.016042941314558634          0.46441314882280005          0.3819098871778708 1.0000   
         H         H         1.0       0.040214811921326366          0.47648703999041114          0.41615125036798123          1.0000   
         H         H         1.0       0.017311881793009798          0.5243731467083073 0.4187745037444711 1.0000   
         H         H         1.0       0.9927697454561317  0.5127216462024726  0.37450690440619705          1.0000   
         C         C         1.0       0.047321205766133634          0.531171695736297  0.35342726430504795          1.0000   
         C         C         1.0       0.05351677679844702           0.5269659340312852 0.40675269682400467          1.0000   
         C         C         1.0       0.06526583166885769           0.5381220705724359 0.4286743580892167 1.0000   
         C         C         1.0       0.06815573557914623           0.5533320114217718 0.40161490008929884          1.0000   
         C         C         1.0       0.05897058189102755           0.5578847875144158 0.35516546666162874          1.0000   
         C         C         1.0       0.04872459859296141           0.5466173912485356 0.32931937666232286          1.0000   
         C         C         1.0       0.04883925218964991           0.5104406523264445 0.44121292774310844          1.0000   
         C         C         1.0       0.06542087506439609           0.49984886726832856          0.42977291985495025          1.0000   
         C         C         1.0       0.07793235590842951           0.4988551428118085 0.47288113701191126          1.0000   
         C         C         1.0       0.09288460813849575           0.489779120153009  0.4657660531812534 1.0000   
         C         C         1.0       0.09337237793005859           0.4797405136042555 0.4198017549285983 1.0000   
         C         C         1.0       0.08134405657215171           0.48067570756506633          0.3769168740513988 1.0000   
         C         C         1.0       0.06795531542784539           0.49113175735528125          0.3815837925280315 1.0000   
         C         C         1.0       0.037285633311174626          0.5282645892072301 0.5283963743285344 1.0000   
         C         C         1.0       0.030825906845405093          0.5288976835970634 0.5832245476541815 1.0000   
         C         C         1.0       0.03133867651405087           0.5149135752333948 0.6182642575038119 1.0000   
         C         C         1.0       0.03822816165964382           0.50043941970292   0.596021980630182  1.0000   
         C         C         1.0       0.0430919699776664  0.49917331694141936           0.5411947026910258 1.0000   
         C         C         1.0       0.043144831430834696          0.5130207410341635 0.5060662189488588 1.0000   
         C         C         1.0       0.025795745429227024          0.515839819119472  0.6861592547112485 1.0000   
         C         C         1.0       0.986577008429501   0.5530306078045154  0.7147731677553149 1.0000   
         C         C         1.0       0.9856144341253603  0.5417412735898961  0.6701695025695185 1.0000   
         C         C         1.0       0.9977208421994902  0.5300251022527488  0.6606877241394343 1.0000   
         C         C         1.0       0.011109118803994011          0.5294058878951583 0.6972082951130837 1.0000   
         C         C         1.0       0.011981769277963794          0.5400627985255588 0.7421064170147788 1.0000   
         C         C         1.0       0.9997793806767554  0.5518175365894528  0.752722242232549  1.0000   
         C         C         1.0       0.04412892070434982           0.5205427437681795 0.7148765980933774 1.0000   
         C         C         1.0       0.05350189563310903           0.5091779198870288 0.7468879864289778 1.0000   
         C         C         1.0       0.06861884446637756           0.5131467542854641 0.773182682729715  1.0000   
         C         C         1.0       0.07544456920304499           0.5289353122631028 0.766512263422503  1.0000   
         C         C         1.0       0.06654558485479756           0.540824466028395  0.735566072549146  1.0000   
         C         C         1.0       0.05174826811317157           0.5361637955945989 0.7068060086609617 1.0000   
         C         C         1.0       0.01574809651691278           0.494803406967635  0.7670472056060629 1.0000   
         C         C         1.0       0.004202334561651977          0.48321202694572996          0.788891683862526  1.0000   
         C         C         1.0       0.9942423680810453  0.4740461484948706  0.7528425819990924 1.0000   
         C         C         1.0       0.9945039440619516  0.47741407019846194           0.6969650361442656 1.0000   
         C         C         1.0       0.005162713173888722          0.49036083966255184          0.6764109691573642 1.0000   
         C         C         1.0       0.016836845877765905          0.49861631171846577          0.7097260223350702 1.0000   
         H         H         1.0       0.0403074828085761  0.5222711396327117  0.3281002118218606 1.0000   
         H         H         1.0       0.06968418367782836           0.5346671247003156 0.4723770454718309 1.0000   
         H         H         1.0       0.07422754626802419           0.5629274265367407 0.42633740039569074          1.0000   
         H         H         1.0       0.04117908057266706           0.5483837504699434 0.29289003575664546          1.0000   
         H         H         1.0       0.07637510780616186           0.5052666055913866 0.5129628862220635 1.0000   
         H         H         1.0       0.10209600584989209           0.48929184991612534          0.4999472138627043 1.0000   
         H         H         1.0       0.08229204745951879           0.47344652566479717          0.33825039661728856          1.0000   
         H         H         1.0       0.060195353934872964          0.49122762925841273          0.345936430141615  1.0000   
         H         H         1.0       0.03647869790452796           0.5395122500120642 0.503980503536988  1.0000   
         H         H         1.0       0.026614169002445953          0.5406843528924062 0.5959262522478094 1.0000   
         H         H         1.0       0.03805060999415999           0.48896717475973633          0.6194744366900221 1.0000   
         H         H         1.0       0.04795067292768196           0.48759566647516683          0.5243756109698218 1.0000   
         H         H         1.0       0.9751075108090189  0.5425871403612186  0.6418903145242492 1.0000   
         H         H         1.0       0.9975257438898487  0.5207856776006513  0.6272681365765995 1.0000   
         H         H         1.0       0.02155150665172667           0.5369019562704938 0.775172460035133  1.0000   
         H         H         1.0       0.0008401355998353122         0.5612967581574977 0.7844752498529546 1.0000   
         H         H         1.0       0.04907401296926661           0.49719454161410737          0.7528465402276493 1.0000   
         H         H         1.0       0.07483057217995825           0.5033121742449472 0.7992497166131848 1.0000   
         H         H         1.0       0.07023237825874751           0.5535571647653547 0.731277745685564  1.0000   
         H         H         1.0       0.04613135198024132           0.5441272755842244 0.6796861705523067 1.0000   
         H         H         1.0       0.02139361092550396           0.5039705646405332 0.7956874072571666 1.0000   
         H         H         1.0       0.003023553867670392          0.4832323462758812 0.8327800994253891 1.0000   
         H         H         1.0       0.9867748206395065  0.4708850508884734  0.6695349619043396 1.0000   
         H         H         1.0       0.004534619393722794          0.4931536813168645 0.6298983669274583 1.0000   
         C         C         1.0       0.08786209441818893           0.5452441290485889 0.898342165765703  1.0000   
         C         C         1.0       0.09949902248684639           0.5482075049305517 0.9423780173350588 1.0000   
         C         C         1.0       0.09388722858958864           0.5476543933622945 0.9970978314864267 1.0000   
         C         C         1.0       0.0764100866866575  0.5458812928248583  0.0070127136258539835        1.0000   
         C         C         1.0       0.06588887834755508           0.5414302095435205 0.964772081604165  1.0000   
         C         C         1.0       0.07120026401749024           0.5416932973750257 0.9085526751151362 1.0000   
         H         H         1.0       0.11230284880562302           0.5530242228868354 0.9349744047091764 1.0000   
         H         H         1.0       0.10076616931901983           0.55361896110693   0.03197436557185562          1.0000   
         H         H         1.0       0.05280427957130418           0.537361434587182  0.9712043034487934 1.0000   
         H         H         1.0       0.06180568100630035           0.5404629503298973 0.8738102246981551 1.0000   
         C         C         1.0       0.07885835143240438           0.5829087353780612 0.08905727771310334          1.0000   
         C         C         1.0       0.06910912493175525           0.5719083879039517 0.055641167117469026         1.0000   
         C         C         1.0       0.05977621763756735           0.5785544121287857 0.010244487394032609         1.0000   
         C         C         1.0       0.057809929989353304          0.5951354280589796 0.006298417802703016         1.0000   
         C         C         1.0       0.0652742123270833  0.6057766191500347  0.04513147881389434          1.0000   
         C         C         1.0       0.07796510252126643           0.5998498382257765 0.08112853946523524          1.0000   
         C         C         1.0       0.06904315726844823           0.5522128082435264 0.06580595567146852          1.0000   
         C         C         1.0       0.07885196248081483           0.5439917282752484 0.11952876848935445          1.0000   
         C         C         1.0       0.07718484852066343           0.5517400944327611 0.17154357665236297          1.0000   
         C         C         1.0       0.08470391680468747           0.5454869330504707 0.219157868923461  1.0000   
         C         C         1.0       0.09499293951774312           0.5318031691197713 0.2158869952415945 1.0000   
         C         C         1.0       0.0957383818029931  0.5234426624356454  0.16603182640272074          1.0000   
         C         C         1.0       0.08761000296268295           0.529226289836254  0.11985970125739875          1.0000   
         C         C         1.0       0.044514460816385215          0.531847734721183  0.08197338930402043          1.0000   
         C         C         1.0       0.02821528137252849           0.5274985887737048 0.09644783613925756          1.0000   
         C         C         1.0       0.0168995404270027  0.5399062667231209  0.11335575540912002          1.0000   
         C         C         1.0       0.021716382600697193          0.5561058350779925 0.11195665907614849          1.0000   
         C         C         1.0       0.03842391376156051           0.5604223246327666 0.10803671768648004          1.0000   
         C         C         1.0       0.050086178679072946          0.5484859464512174 0.08368463902301149          1.0000   
         C         C         1.0       0.9983243282352222  0.5362548240526868  0.1347944331063673 1.0000   
         C         C         1.0       0.9715327170424705  0.5679683674220459  0.2612603603103738 1.0000   
         C         C         1.0       0.9633659064809247  0.5605236561028449  0.21476708656951904          1.0000   
         C         C         1.0       0.9718046262173305  0.5518422244964984  0.17366256777420852          1.0000   
         C         C         1.0       0.988984948795487   0.5490013757041149  0.1767304175527562 1.0000   
         C         C         1.0       0.9971038880466503  0.555693239602264   0.22404415216110496          1.0000   
         C         C         1.0       0.9889627672318212  0.5659650559689521  0.263491399056063  1.0000   
         C         C         1.0       0.9967059672386104  0.5202233967472893  0.17240794764567677          1.0000   
         C         C         1.0       0.009324057544960018          0.5149677595293722 0.20845943399326433          1.0000   
         C         C         1.0       0.007525883137722955          0.5011918708867443 0.2418188087794645 1.0000   
         C         C         1.0       0.992785542554407   0.491653503832398   0.24031970286889898          1.0000   
         C         C         1.0       0.9798841645655472  0.4965110687992809  0.2045396353299153 1.0000   
         C         C         1.0       0.9817716297610115  0.5113234249965063  0.17341112724337515          1.0000   
         C         C         1.0       0.9824665780844848  0.5482611852078453  0.04803613570384502          1.0000   
         C         C         1.0       0.974539763556631   0.5461121226950914  0.9951306705993829 1.0000   
         C         C         1.0       0.9763583938632884  0.5304897610068996  0.9689867998681712 1.0000   
         C         C         1.0       0.9838069086400841  0.5171514621437729  0.9927368732149577 1.0000   
         C         C         1.0       0.9905552267074005  0.5190201355244245  0.04649108038569261          1.0000   
         C         C         1.0       0.989717192346485   0.5342597994086712  0.07620442691850471          1.0000   
         H         H         1.0       0.0873724609614468  0.5795066351183764  0.12523401409386747          1.0000   
         H         H         1.0       0.05312905116195932           0.5713454032193017 0.9790460521334355 1.0000   
         H         H         1.0       0.04823112403256524           0.6008532835772319 0.9783842040861225 1.0000   
         H         H         1.0       0.08540386077751716           0.6079920028803707 0.10732595204834006          1.0000   
         H         H         1.0       0.06924483709038776           0.5624946125911385 0.17481373164438052          1.0000   
         H         H         1.0       0.08318773328482809           0.55199400407482   0.258894284022829  1.0000   
         H         H         1.0       0.1032799993436353  0.5125558508257785  0.1584964105394877 1.0000   
         H         H         1.0       0.08761981904473704           0.5214962065591443 0.08405892111115243          1.0000   
         H         H         1.0       0.053649800815914084          0.5219947044711629 0.0716731536577826 1.0000   
         H         H         1.0       0.023844087308361184          0.5146732155513983 0.10087918610224111          1.0000   
         H         H         1.0       0.011378229708672416          0.5658765130208837 0.11645749287097718          1.0000   
         H         H         1.0       0.04022685209562704           0.5742994860836246 0.10550140933990138          1.0000   
         H         H         1.0       0.9502575541235292  0.5628769132592222  0.21231930023672474          1.0000   
         H         H         1.0       0.9642099819843175  0.5472427432801138  0.1407533766443121 1.0000   
         H         H         1.0       0.009362409268084848          0.5518906853930269 0.23249869921808486          1.0000   
         H         H         1.0       0.9970123504087357  0.5711674078000281  0.2961493294836004 1.0000   
         H         H         1.0       0.02081798770454779           0.5213566398859296 0.2147759054516436 1.0000   
         H         H         1.0       0.01772634568417053           0.4971678709724788 0.26934954581045845          1.0000   
         H         H         1.0       0.9683061083542085  0.48929706253415745           0.20301421107221   1.0000   
         H         H         1.0       0.9716410588487884  0.5154227398135482  0.1454414350953656 1.0000   
         H         H         1.0       0.9816304342233686  0.560943881769657   0.06752267703533212          1.0000   
         H         H         1.0       0.9690318060753349  0.5559222792746578  0.9701582759652673 1.0000   
         H         H         1.0       0.9844718269037421  0.5055164368244457  0.9711053098811449 1.0000   
         H         H         1.0       0.9950337036450035  0.5085246134067951  0.06905692413716236          1.0000   
         C         C         1.0       0.13361261725982843           0.4826212026630453 0.3877273321045223 1.0000   
         C         C         1.0       0.14983812704402077           0.4773623473904339 0.40517962058320167          1.0000   
         C         C         1.0       0.16249019465971293           0.4880622964984012 0.412272307421746  1.0000   
         C         C         1.0       0.16037262702555163           0.5049307901706541 0.4052979595979211 1.0000   
         C         C         1.0       0.14418897795224972           0.5106374444597953 0.38762943887063206          1.0000   
         C         C         1.0       0.130497890997313   0.49972063465307737           0.380008132836395  1.0000   
         H         H         1.0       0.1503763184103188  0.4641512879266364  0.4122783015699394 1.0000   
         H         H         1.0       0.17471470713360265           0.482802229434132  0.43078011726933035          1.0000   
         H         H         1.0       0.14130268174654034           0.5239429404634225 0.37600557442672994          1.0000   
         H         H         1.0       0.11788967894001763           0.5029212113854395 0.36562198456419803          1.0000   
         C         C         1.0       0.16931243122133116           0.535436468342217  0.3241267820411247 1.0000   
         C         C         1.0       0.1751532390743581  0.5342382006424874  0.3795124122597079 1.0000   
         C         C         1.0       0.18313645255923922           0.5486971611162843 0.4000266954197439 1.0000   
         C         C         1.0       0.18112226905273543           0.5636987671495761 0.3722851884749084 1.0000   
         C         C         1.0       0.17389023350734495           0.564989100903246  0.3198532556548366 1.0000   
         C         C         1.0       0.16930945399877873           0.5503755179366459 0.2941532727276931 1.0000   
         C         C         1.0       0.17652591772106552           0.5161079721733178 0.4148782602591656 1.0000   
         C         C         1.0       0.19453624921440477           0.5094710216783639 0.3865611276749072 1.0000   
         C         C         1.0       0.20978676537294755           0.5162088409351198 0.4038774925919231 1.0000   
         C         C         1.0       0.22484111452942482           0.5115116834199445 0.38103956798677124          1.0000   
         C         C         1.0       0.2246045962106436  0.5011567463341594  0.33424820423549106          1.0000   
         C         C         1.0       0.20958197039073329           0.4931755789694352 0.31771847443194035          1.0000   
         C         C         1.0       0.19469975788821606           0.49666915955302876          0.3431042190886966 1.0000   
         C         C         1.0       0.1621711339052679  0.5295160383046914  0.4990200333848258 1.0000   
         C         C         1.0       0.16265031331881125           0.5361456003062773 0.5526709690833612 1.0000   
         C         C         1.0       0.17643727979803195           0.5348275458181295 0.5873382007891871 1.0000   
         C         C         1.0       0.18717475651661358           0.522008579296693  0.5752126491537303 1.0000   
         C         C         1.0       0.1873837671020021  0.515688671760658   0.5201359455682936 1.0000   
         C         C         1.0       0.17591833967074424           0.5208842922799055 0.48028002229082206          1.0000   
         C         C         1.0       0.18007760420600993           0.5474067197886684 0.6382049338329374 1.0000   
         C         C         1.0       0.17210252104193194           0.601654061840693  0.5979533043663919 1.0000   
         C         C         1.0       0.17210341838412885           0.5967627271889706 0.6543661325406032 1.0000   
         C         C         1.0       0.17505246897480042           0.57974595708339   0.6676245500626365 1.0000   
         C         C         1.0       0.17720645605372656           0.5678088741659976 0.622795017708009  1.0000   
         C         C         1.0       0.17787028884231962           0.5734962832917825 0.5667490738985863 1.0000   
         C         C         1.0       0.17510661304322991           0.5901155532014319 0.5548305148816178 1.0000   
         C         C         1.0       0.19954977923673006           0.5497477890791806 0.6540653070877768 1.0000   
         C         C         1.0       0.21243495985865582           0.5518649552940336 0.6119240567081654 1.0000   
         C         C         1.0       0.22806421198269017           0.5575344941587795 0.6241676051300243 1.0000   
         C         C         1.0       0.23195317041600366           0.5624195851162989 0.6785194048063113 1.0000   
         C         C         1.0       0.2203955800822995  0.5601816255916213  0.7215056504707306 1.0000   
         C         C         1.0       0.20491081037541292           0.5535283553881692 0.7092111784251873 1.0000   
         C         C         1.0       0.1747125148123929  0.525730245321984   0.7154654875307375 1.0000   
         C         C         1.0       0.1653060066715426  0.5173649610469504  0.7564158151089141 1.0000   
         C         C         1.0       0.15073924321348348           0.5248811871064336 0.7779169702351959 1.0000   
         C         C         1.0       0.14507213177247077           0.5401767101058457 0.754476172421661  1.0000   
         C         C         1.0       0.15486950854494935           0.5479876639939311 0.7124252277682728 1.0000   
         C         C         1.0       0.1698667597343271  0.5404728014408489  0.6896650190723838 1.0000   
         H         H         1.0       0.16457454693337537           0.5247286502660053 0.2992131331763465 1.0000   
         H         H         1.0       0.19053057922003377           0.5489568202521398 0.43882806659797774          1.0000   
         H         H         1.0       0.186114513183268   0.575410230124045   0.3868968496302976 1.0000   
         H         H         1.0       0.1640543610239089  0.5498001450102188  0.2516171225867242 1.0000   
         H         H         1.0       0.2103756104814468  0.5252048641618859  0.43960161143292   1.0000   
         H         H         1.0       0.23656906674624567           0.5188491133965559 0.3933796195777037 1.0000   
         H         H         1.0       0.20869495917245814           0.4823149343495827 0.28773533103256227          1.0000   
         H         H         1.0       0.1831989415105086  0.49294381589398356           0.32649950541988115          1.0000   
         H         H         1.0       0.15172667909941476           0.5321649555108592 0.46978265218902576          1.0000   
         H         H         1.0       0.1519844042488919  0.544599799501228   0.5609618981129957 1.0000   
         H         H         1.0       0.19819131936808299           0.5194903245350568 0.597806733872707  1.0000   
         H         H         1.0       0.19611303524576387           0.5059895380130547 0.5124984639384168 1.0000   
         H         H         1.0       0.1682875318140625  0.6047285802422969  0.6893930992624974 1.0000   
         H         H         1.0       0.17433352026810456           0.5762904056816812 0.7104119860068083 1.0000   
         H         H         1.0       0.1824307643963815  0.5650198130184385  0.533960565707413  1.0000   
         H         H         1.0       0.17434482352286187           0.5947741037137709 0.512345051698568  1.0000   
         H         H         1.0       0.2083257575659936  0.5508773907606553  0.5710454329253402 1.0000   
         H         H         1.0       0.2379637016475672  0.5586036412569814  0.5952347279682048 1.0000   
         H         H         1.0       0.22441789943086785           0.5626532343703542 0.7668295679667321 1.0000   
         H         H         1.0       0.19553025386668976           0.552215780936355  0.7403811571353884 1.0000   
         H         H         1.0       0.18605966509825378           0.5191716900437553 0.701839276998862  1.0000   
         H         H         1.0       0.1681424552891969  0.5045461733451515  0.7708867980988068 1.0000   
         H         H         1.0       0.13458231479932828           0.5468013760659998 0.7668859124702396 1.0000   
         H         H         1.0       0.14986121531942825           0.559061918905428  0.6921915968066085 1.0000   
         C         C         1.0       0.13230360024940635           0.5424361156966523 0.21102006956066077          1.0000   
         C         C         1.0       0.14043746507083923           0.5309649572734749 0.17563931828314638          1.0000   
         C         C         1.0       0.14751793818340717           0.5364290039433323 0.12987291897259556          1.0000   
         C         C         1.0       0.14749964186281578           0.5533923798712026 0.11239082439962922          1.0000   
         C         C         1.0       0.13954768162784398           0.5639872979138075 0.14873529156558862          1.0000   
         C         C         1.0       0.1315350683621131  0.5586910960297543  0.19830183010423097          1.0000   
         H         H         1.0       0.14237683096594927           0.5182634273101916 0.18580640146580074          1.0000   
         H         H         1.0       0.15418091989152818           0.526939505221142  0.1085339709260087 1.0000   
         H         H         1.0       0.1387286190261142  0.5770430314402728  0.1400931183440417 1.0000   
         H         H         1.0       0.12614431189714734           0.567383464713116  0.22864355501656197          1.0000   
         C         C         1.0       0.1333118431345547  0.5807090909947953  0.02748346870516638          1.0000   
         C         C         1.0       0.1502988012903106  0.5765153761673507  0.027341704189290494         1.0000   
         C         C         1.0       0.16142114744052344           0.5873640768665109 0.0005309594859845834        1.0000   
         C         C         1.0       0.1565478563404203  0.6027996580986008  0.9777663685239257 1.0000   
         C         C         1.0       0.14023397535891302           0.6073618607723373 0.9861963885675481 1.0000   
         C         C         1.0       0.127713954313349   0.596339815990618   0.009116489765144342         1.0000   
         C         C         1.0       0.15640365669263387           0.559063749301912  0.05578850493672016          1.0000   
         C         C         1.0       0.1533029088622796  0.547498274895293   0.9999730832497792 1.0000   
         C         C         1.0       0.16400239144828432           0.549004865412664  0.9524573098393694 1.0000   
         C         C         1.0       0.16293463249210863           0.5377285862565565 0.9102721653331918 1.0000   
         C         C         1.0       0.15158563191766994           0.5246868875571935 0.9137965876370526 1.0000   
         C         C         1.0       0.13924611446659046           0.524216901113519  0.9563994997761412 1.0000   
         C         C         1.0       0.13960575547841622           0.5362983784235136 0.997797222135997  1.0000   
         C         C         1.0       0.18060078863521498           0.573772716271623  0.11286987517804059          1.0000   
         C         C         1.0       0.1968452713562155  0.5749368287608847  0.13170416611978886          1.0000   
         C         C         1.0       0.20909092565938728           0.5636057608545699 0.10834705875049533          1.0000   
         C         C         1.0       0.20367663313891252           0.5492610045879496 0.08147178870215988          1.0000   
         C         C         1.0       0.18641045560022057           0.5471758926219602 0.07273992806804741          1.0000   
         C         C         1.0       0.17528607777460242           0.5607918558172651 0.07955145666094765          1.0000   
         C         C         1.0       0.229845974278357   0.5646360530108052  0.11821977495523361          1.0000   
         C         C         1.0       0.24476835042917336           0.6134984155005571 0.18992012725093935          1.0000   
         C         C         1.0       0.24770226661211894           0.5986479173582064 0.22148226513669733          1.0000   
         C         C         1.0       0.24188418429425038           0.5836731529295847 0.20167604947057047          1.0000   
         C         C         1.0       0.2341266805531085  0.5821064806486201  0.14994894645084011          1.0000   
         C         C         1.0       0.23140679274523537           0.5974574141814017 0.12003534280528116          1.0000   
         C         C         1.0       0.23642194981225545           0.6122808205987971 0.13899533626153282          1.0000   
         C         C         1.0       0.24102014422503032           0.5667156938483411 0.06108069148629314          1.0000   
         C         C         1.0       0.2336823100058625  0.5679216606855856  0.008521305894538367         1.0000   
         C         C         1.0       0.2429103174469922  0.568989065845631   0.9597458384741637 1.0000   
         C         C         1.0       0.2606165944730924  0.5698864172471314  0.9639352321899869 1.0000   
         C         C         1.0       0.26809151635814826           0.569803423186861  0.016986615409264383         1.0000   
         C         C         1.0       0.2584443340220813  0.5687881888946167  0.06418889495547608          1.0000   
         C         C         1.0       0.24209901232932968           0.5326371736922415 0.1255809165842244 1.0000   
         C         C         1.0       0.24319195919689587           0.5178141308195704 0.15507349671343393          1.0000   
         C         C         1.0       0.2392129590074816  0.5176068989032662  0.2123400200388876 1.0000   
         C         C         1.0       0.23273793442389354           0.5317620813685701 0.23871983000091787          1.0000   
         C         C         1.0       0.22892536945803205           0.545304283953895  0.2065072249459842 1.0000   
         C         C         1.0       0.23396522930130095           0.5470803598780846 0.15184716295720696          1.0000   
         H         H         1.0       0.12360436466201268           0.5733539192425909 0.047854247726089705         1.0000   
         H         H         1.0       0.17436003609420994           0.5834661759593915 0.9929502931655753 1.0000   
         H         H         1.0       0.16694885473148782           0.610485420037155  0.9602429168199107 1.0000   
         H         H         1.0       0.11478421659191987           0.5999925776225238 0.008093639917144069         1.0000   
         H         H         1.0       0.17425930976235648           0.5583106318637453 0.9446042619269531 1.0000   
         H         H         1.0       0.17111862643865228           0.5397812088665414 0.8735764972651026 1.0000   
         H         H         1.0       0.12981808056285685           0.5137794018347793 0.9560515821357699 1.0000   
         H         H         1.0       0.13053544049483487           0.5342261131941163 0.03223053439131496          1.0000   
         H         H         1.0       0.17218344215099965           0.5841779776113584 0.11907702595468317          1.0000   
         H         H         1.0       0.19988772860594564           0.5857715213422412 0.15488849997950016          1.0000   
         H         H         1.0       0.2130459053831333  0.540041031524981   0.06583346474631235          1.0000   
         H         H         1.0       0.1811038570282322  0.5370866510096776  0.04728051300423841          1.0000   
         H         H         1.0       0.25380472440247    0.5996853184214237  0.2637223477486123 1.0000   
         H         H         1.0       0.24685204997789723           0.5733005797420717 0.2271979601274858 1.0000   
         H         H         1.0       0.2252581624836956  0.5979515389696061  0.07713732816401042          1.0000   
         H         H         1.0       0.23498208185168878           0.6242040655319209 0.11738211955499112          1.0000   
         H         H         1.0       0.22029830653153173           0.5672999961580815 0.00573255925631222          1.0000   
         H         H         1.0       0.2369155727226607  0.570601748696924   0.9195021330123094 1.0000   
         H         H         1.0       0.2816737885735762  0.5713158470011851  0.026305728971311115         1.0000   
         H         H         1.0       0.2646501138244659  0.5703589001004497  0.10522572584354507          1.0000   
         H         H         1.0       0.2457514016534442  0.532951645872951   0.08387323593118912          1.0000   
         H         H         1.0       0.24667674183843175           0.5060907297429327 0.13313966821607126          1.0000   
         H         H         1.0       0.22713462993769745           0.5313400464257878 0.2778673665099315 1.0000   
         H         H         1.0       0.22244307151128334           0.5557040217090622 0.2267769395971749 1.0000   
         C         C         1.0       0.7534625128845961  0.723392899940211   0.9900970219905869 1.0000   
         C         C         1.0       0.74604878458088    0.7377717134031445  0.00912055258806399          1.0000   
         C         C         1.0       0.7331044387970528  0.7368633860725458  0.04707135500914017          1.0000   
         C         C         1.0       0.7261706781969066  0.7215625311181393  0.06223695945528518          1.0000   
         C         C         1.0       0.733512003122956   0.7067354786634462  0.040234764177180304         1.0000   
         C         C         1.0       0.747021522616822   0.7076055791608675  0.0033940410652424373        1.0000   
         H         H         1.0       0.7506308251603848  0.7497177755313896  0.992354639729046  1.0000   
         H         H         1.0       0.727574780797045   0.7475071641347022  0.06365910611296322          1.0000   
         H         H         1.0       0.7281564781037845  0.6937007348160591  0.047046565816892594         1.0000   
         H         H         1.0       0.7535471067697204  0.6960282656529525  0.9923114565819431 1.0000   
         C         C         1.0       0.6933616243323202  0.7059694173131303  0.020733447744517797         1.0000   
         C         C         1.0       0.6950092825061596  0.7090354478055522  0.07886284810329759          1.0000   
         C         C         1.0       0.6808993591070529  0.7041094852991509  0.11040372765436234          1.0000   
         C         C         1.0       0.6665559299944478  0.6967677538534713  0.08626966709820061          1.0000   
         C         C         1.0       0.6664136179300917  0.6926086166991311  0.029351621900760575         1.0000   
         C         C         1.0       0.6795716828465398  0.6986802729572908  0.9945244164271948 1.0000   
         C         C         1.0       0.7104524043424846  0.718791780740522   0.10565655165105331          1.0000   
         C         C         1.0       0.7014957723977854  0.7362815540793105  0.12521333970276374          1.0000   
         C         C         1.0       0.6971831020300661  0.7403358856852583  0.18002814842370804          1.0000   
         C         C         1.0       0.6878397699667342  0.7542870330956027  0.1934823619112619 1.0000   
         C         C         1.0       0.6804653141291007  0.7638078135669283  0.1513970826020176 1.0000   
         C         C         1.0       0.6840053967096604  0.7606137819323443  0.09699532414800527          1.0000   
         C         C         1.0       0.6934294375761019  0.7465220759333282  0.08393363855284863          1.0000   
         C         C         1.0       0.7150771241313374  0.6968089152046218  0.1853066551979149 1.0000   
         C         C         1.0       0.721046445790915   0.6933693180585936  0.2400263190162208 1.0000   
         C         C         1.0       0.732345983626568   0.703559373039473   0.26767394231582453          1.0000   
         C         C         1.0       0.7388309077622841  0.7170327464363734  0.23781271869365173          1.0000   
         C         C         1.0       0.7325196220961977  0.7211563556032234  0.18563859889025466          1.0000   
         C         C         1.0       0.7198605983298892  0.7114668131194648  0.15871765165604207          1.0000   
         C         C         1.0       0.733847215092004   0.7047755540835335  0.33658455746580523          1.0000   
         C         C         1.0       0.7295952534912014  0.6610167613786616  0.43978545369262695          1.0000   
         C         C         1.0       0.7361133861435125  0.6593199923181475  0.3865277952055427 1.0000   
         C         C         1.0       0.7352346195204287  0.6732942767608507  0.35172339948271003          1.0000   
         C         C         1.0       0.7286649721790758  0.6887361086300144  0.3720449192184675 1.0000   
         C         C         1.0       0.7215003085509452  0.6897484026193369  0.42521269565801184          1.0000   
         C         C         1.0       0.7219143764662788  0.6758970639656036  0.45936306470389926          1.0000   
         C         C         1.0       0.7220157081825965  0.720653911185653   0.3477482857614651 1.0000   
         C         C         1.0       0.7270509404324527  0.7366490122025231  0.36368987312638923          1.0000   
         C         C         1.0       0.7157767652825046  0.749344212128733   0.37666887676172084          1.0000   
         C         C         1.0       0.6984893456273281  0.7456628837085135  0.37194091666096313          1.0000   
         C         C         1.0       0.6928449079935316  0.7297523692372155  0.35463532470211734          1.0000   
         C         C         1.0       0.7044974004032889  0.7173218022526767  0.3427133011105142 1.0000   
         C         C         1.0       0.7567639110841754  0.7119697850706647  0.41348583302629616          1.0000   
         C         C         1.0       0.7721052299820993  0.7083271718079005  0.43633004712635104          1.0000   
         C         C         1.0       0.7844524069847091  0.7003625212133476  0.4053283421735376 1.0000   
         C         C         1.0       0.780996364702993   0.6967364110113939  0.34942424728238625          1.0000   
         C         C         1.0       0.7661390577819749  0.7001406899586953  0.32599759247990784          1.0000   
         C         C         1.0       0.7528985095880042  0.7071669506514416  0.3570510962879972 1.0000   
         H         H         1.0       0.7032569408060539  0.7096365388411552  0.991261173418014  1.0000   
         H         H         1.0       0.6810144439910284  0.7050281460487906  0.1549086262464198 1.0000   
         H         H         1.0       0.6561247314072002  0.6948557687847777  0.11483781475390695          1.0000   
         H         H         1.0       0.6787049740993607  0.6961265693750142  0.9503749986387491 1.0000   
         H         H         1.0       0.7011810842849647  0.7334664431181833  0.21624869927380166          1.0000   
         H         H         1.0       0.6820490655923185  0.7566905410965937  0.23387770492274268          1.0000   
         H         H         1.0       0.6786377501129497  0.7687398283345129  0.06554367805805406          1.0000   
         H         H         1.0       0.6954726357914126  0.7434205027116337  0.03904637431115155          1.0000   
         H         H         1.0       0.705631949154754   0.688795190829699   0.1646593558503725 1.0000   
         H         H         1.0       0.7148970049293618  0.6836857051772695  0.26350404797531585          1.0000   
         H         H         1.0       0.7478451505164436  0.7250279781722365  0.26033313627045296          1.0000   
         H         H         1.0       0.7363780429554522  0.7324419619933616  0.16565788205248988          1.0000   
         H         H         1.0       0.741318591142523   0.6472972290839293  0.3741008374322443 1.0000   
         H         H         1.0       0.7420731256923556  0.6740793210417736  0.3124676969931732 1.0000   
         H         H         1.0       0.7177451971600872  0.7013702799590636  0.4440874463316251 1.0000   
         H         H         1.0       0.7182085803156519  0.677018704709194   0.5048077359258998 1.0000   
         H         H         1.0       0.7402900912848891  0.7404361740070116  0.36262567779179844          1.0000   
         H         H         1.0       0.7203756428027003  0.7620084689592009  0.3818960406804287 1.0000   
         H         H         1.0       0.6793214925490674  0.7272512353435753  0.34909328335219697          1.0000   
         H         H         1.0       0.699241298409838   0.7044095254896033  0.33034400629373145          1.0000   
         H         H         1.0       0.7458754483762084  0.7158087350289873  0.4402985195888683 1.0000   
         H         H         1.0       0.7741830508757073  0.7107574916338939  0.480836318975654  1.0000   
         H         H         1.0       0.7902150079144868  0.6927978147956875  0.3197919910749573 1.0000   
         H         H         1.0       0.7640771932402658  0.697702697973382   0.2822009738331512 1.0000   
         C         C         1.0       0.67055308294071    0.7500736382366554  0.4635801155011416 1.0000   
         C         C         1.0       0.6780483261273166  0.7571714557106853  0.5105546552570881 1.0000   
         C         C         1.0       0.6786008484403394  0.748078910366652   0.5596108230740936 1.0000   
         C         C         1.0       0.6733588809477482  0.7313962803247546  0.5625910529260565 1.0000   
         C         C         1.0       0.6678935398040607  0.7244349975007075  0.5127946709896322 1.0000   
         C         C         1.0       0.6641855370892222  0.7335703937913064  0.4664191511972015 1.0000   
         H         H         1.0       0.6819086978315279  0.7702677865038839  0.514380079767517  1.0000   
         H         H         1.0       0.6849349606508955  0.7532292847923392  0.5959357849974563 1.0000   
         H         H         1.0       0.6645097364410211  0.7108960834487885  0.5061585684980896 1.0000   
         H         H         1.0       0.6613078812158942  0.7270226398356553  0.4273533912320869 1.0000   
         C         C         1.0       0.656859887667391   0.6949578827551478  0.6055723789466664 1.0000   
         C         C         1.0       0.6739073409959742  0.7016196658076194  0.6069680240218531 1.0000   
         C         C         1.0       0.686690631301143   0.6910911244450091  0.5861937061233733 1.0000   
         C         C         1.0       0.6833163221942203  0.6746704562020351  0.5705703312323359 1.0000   
         C         C         1.0       0.6677777736962451  0.6682904110151603  0.5704700213155268 1.0000   
         C         C         1.0       0.6544416233507061  0.6785278875286406  0.585288105312643  1.0000   
         C         C         1.0       0.6765355772907797  0.7207687852998038  0.6187492172459876 1.0000   
         C         C         1.0       0.6639530898875589  0.7285341688582149  0.6678568848920275 1.0000   
         C         C         1.0       0.6599043264223396  0.7185163006741144  0.7168617071493579 1.0000   
         C         C         1.0       0.6523427135485939  0.7249606644881195  0.7638055097003216 1.0000   
         C         C         1.0       0.646096656425033   0.7413351519740912  0.7620251049288744 1.0000   
         C         C         1.0       0.6487997184582437  0.7506276028494704  0.7127285186211818 1.0000   
         C         C         1.0       0.6548948135560373  0.7434376430959427  0.6639450026140535 1.0000   
         C         C         1.0       0.7087251402049783  0.725387262836038   0.6005551939086806 1.0000   
         C         C         1.0       0.7255447137297347  0.7250229690517257  0.6108510547046809 1.0000   
         C         C         1.0       0.7305253363137871  0.7231076425630361  0.6675900279503751 1.0000   
         C         C         1.0       0.7181738152366092  0.7223675497558477  0.7091540554096908 1.0000   
         C         C         1.0       0.7010391338951582  0.722476278453358   0.6953484815570415 1.0000   
         C         C         1.0       0.6956819726388233  0.7241309479699256  0.639420079244734  1.0000   
         C         C         1.0       0.7495911946131862  0.7193839590548933  0.6856538023340151 1.0000   
         C         C         1.0       0.7424357707043807  0.6642839914274957  0.6648697214167663 1.0000   
         C         C         1.0       0.7476615414323409  0.6737956616986909  0.6193561347899837 1.0000   
         C         C         1.0       0.7513250708182486  0.6909098826265673  0.62419831624282   1.0000   
         C         C         1.0       0.7489520338467809  0.6984064242608878  0.6784700673853266 1.0000   
         C         C         1.0       0.743277293274931   0.6879946089438651  0.7249007944300938 1.0000   
         C         C         1.0       0.7406765594634414  0.6714388377489064  0.7167149775612115 1.0000   
         C         C         1.0       0.7558145548558293  0.7234456463508492  0.7467900917446479 1.0000   
         C         C         1.0       0.7490429481154248  0.737578476510758   0.7752290516525953 1.0000   
         C         C         1.0       0.7533297983927746  0.7403805479340906  0.8320982504671822 1.0000   
         C         C         1.0       0.767316607014503   0.7315915614623132  0.8549115174299238 1.0000   
         C         C         1.0       0.7748068711893951  0.719206559736771   0.8234127001413732 1.0000   
         C         C         1.0       0.7697999053636837  0.715558791471049   0.7706638618657103 1.0000   
         C         C         1.0       0.7782777598098216  0.7218838152362499  0.627565599318254  1.0000   
         C         C         1.0       0.7886147591364946  0.7304983400626629  0.5913580713326139 1.0000   
         C         C         1.0       0.7856190345214548  0.7469699873408053  0.5831038422819571 1.0000   
         C         C         1.0       0.7712421477461121  0.754940962612859   0.603836925120133  1.0000   
         C         C         1.0       0.7599278294877496  0.7454478911617035  0.633431592191779  1.0000   
         C         C         1.0       0.7629230709910482  0.7285940383612937  0.6469478365274854 1.0000   
         H         H         1.0       0.6458583841061918  0.7018287861402058  0.6148280945185421 1.0000   
         H         H         1.0       0.6994473199494916  0.6950490680840329  0.5886557288859958 1.0000   
         H         H         1.0       0.6933424979192256  0.6672002353987575  0.5575568530106271 1.0000   
         H         H         1.0       0.6415208052242996  0.673875273956169   0.5813660573692752 1.0000   
         H         H         1.0       0.6662781079539477  0.7058612234051722  0.7201268987025643 1.0000   
         H         H         1.0       0.650664517402917   0.7187699200292331  0.8054457973377438 1.0000   
         H         H         1.0       0.6449310554400358  0.7646103116431856  0.7094973866365053 1.0000   
         H         H         1.0       0.654267266321377   0.7513008960124785  0.6263252017095019 1.0000   
         H         H         1.0       0.7056573229873031  0.7267188481739202  0.5555678622469628 1.0000   
         H         H         1.0       0.7351046521124232  0.7247725384650393  0.5771989344869404 1.0000   
         H         H         1.0       0.7215664229274544  0.7193505166145168  0.7525740993476119 1.0000   
         H         H         1.0       0.6928580124727496  0.7190540652203424  0.7278964601079386 1.0000   
         H         H         1.0       0.7517357766816205  0.6678070801248327  0.5791496719664676 1.0000   
         H         H         1.0       0.755996288990496   0.6979213373433126  0.5878593969654211 1.0000   
         H         H         1.0       0.7405072556512942  0.6931004753274149  0.7676533638041857 1.0000   
         H         H         1.0       0.7359802830516834  0.6632776400930978  0.749761278043572  1.0000   
         H         H         1.0       0.7390038795156014  0.7444971264622497  0.752252482264482  1.0000   
         H         H         1.0       0.7475216010573126  0.750854113793959   0.8573765530635508 1.0000   
         H         H         1.0       0.7857635008328501  0.7127563570288354  0.8408619213983047 1.0000   
         H         H         1.0       0.7767652221325968  0.7054219217656145  0.7503218789337883 1.0000   
         H         H         1.0       0.7820853225099     0.7090732043538905  0.6436411291984941 1.0000   
         H         H         1.0       0.7989098323830939  0.7239509040781384  0.5723553075284277 1.0000   
         H         H         1.0       0.7696955887379903  0.7682069193443253  0.6001295457435346 1.0000   
         H         H         1.0       0.7483865896474446  0.7518698264986242  0.6500278436491624 1.0000   
         C         C         1.0       0.6427896791930194  0.7625110779033084  0.20035487926837858          1.0000   
         C         C         1.0       0.6312195797041134  0.7626457450468701  0.15839298883038957          1.0000   
         C         C         1.0       0.6201226446918927  0.7495025745082249  0.15286294969894723          1.0000   
         C         C         1.0       0.6189696391169052  0.7365898032381519  0.19158056365481815          1.0000   
         C         C         1.0       0.6313228922188854  0.7361105440271853  0.23419259609620854          1.0000   
         C         C         1.0       0.6419143856486772  0.7498059376942717  0.2402402148198596 1.0000   
         H         H         1.0       0.6309757433367769  0.7725873435712445  0.12683704633075088          1.0000   
         H         H         1.0       0.6106932829976142  0.7506788724679556  0.11944781975107593          1.0000   
         H         H         1.0       0.6325041556557016  0.7258037940173864  0.26425748858645226          1.0000   
         H         H         1.0       0.650468875599519   0.7495770370965168  0.2767596305980211 1.0000   
         C         C         1.0       0.6271224035577114  0.6959750296885192  0.19409058295150072          1.0000   
         C         C         1.0       0.6106956820004479  0.7023565684449611  0.19966944768391406          1.0000   
         C         C         1.0       0.5988475911493809  0.6903384304078711  0.21942532122781924          1.0000   
         C         C         1.0       0.60240368687812    0.6729154367142031  0.22382949839617444          1.0000   
         C         C         1.0       0.6182247163356815  0.6669927293666065  0.2104166474588162 1.0000   
         C         C         1.0       0.6302237718597814  0.6788606614850794  0.20008064787594387          1.0000   
         C         C         1.0       0.6054179347793581  0.7211032791822937  0.18195094209003077          1.0000   
         C         C         1.0       0.6014390560618774  0.7171944932840484  0.11743815644350883          1.0000   
         C         C         1.0       0.5853080753745168  0.712867571953934   0.10314244518500176          1.0000   
         C         C         1.0       0.579946522710092   0.7110843990272652  0.045865132127054675         1.0000   
         C         C         1.0       0.5908229341288141  0.7167205975554525  0.0035821852697912604        1.0000   
         C         C         1.0       0.607310562068817   0.7183845220384865  0.01705622394951556          1.0000   
         C         C         1.0       0.6127769364510998  0.7186887235271777  0.07372713716979429          1.0000   
         C         C         1.0       0.5908191204682027  0.725616042023453   0.28019878523397057          1.0000   
         C         C         1.0       0.579197517295455   0.7327733742744428  0.3135552584645981 1.0000   
         C         C         1.0       0.5670299952781351  0.7439335331196946  0.2942743537213204 1.0000   
         C         C         1.0       0.5692540104892203  0.749019014363472   0.23790659788856805          1.0000   
         C         C         1.0       0.5798577608814778  0.7409100691769391  0.2022948428954909 1.0000   
         C         C         1.0       0.5910038239850736  0.7281428822707241  0.22420045890337179          1.0000   
         C         C         1.0       0.5540701139444246  0.7522551456064118  0.3384420160577685 1.0000   
         C         C         1.0       0.5352803886576124  0.7220775342569343  0.48059052641143096          1.0000   
         C         C         1.0       0.5385494949053931  0.7383114956827643  0.4865992285955363 1.0000   
         C         C         1.0       0.5462300931937073  0.747729232642506   0.44492787415615803          1.0000   
         C         C         1.0       0.5498274501003396  0.740761192667937   0.3917074156841015 1.0000   
         C         C         1.0       0.5460415866707846  0.7236675181454425  0.3865884389149157 1.0000   
         C         C         1.0       0.5407700393792805  0.7141367116013279  0.4311683164446133 1.0000   
         C         C         1.0       0.5351693035590527  0.7541783932345394  0.31472463975650583          1.0000   
         C         C         1.0       0.5283521709642482  0.7424590949481531  0.27768839852370975          1.0000   
         C         C         1.0       0.5112495796296229  0.7417018462338537  0.2703673463619703 1.0000   
         C         C         1.0       0.5008050370328723  0.7530683431677513  0.29555521610811364          1.0000   
         C         C         1.0       0.5082008913719992  0.7661494535577043  0.3255720335824856 1.0000   
         C         C         1.0       0.5248024524385443  0.7667904356082853  0.3345835147260501 1.0000   
         C         C         1.0       0.5604150743142335  0.7841277167660679  0.3335476403707068 1.0000   
         C         C         1.0       0.568248217894503   0.7983481064838792  0.3532139552746508 1.0000   
         C         C         1.0       0.5813104441405331  0.7968032720540796  0.39217574504426833          1.0000   
         C         C         1.0       0.5870703485680402  0.7814463438630062  0.40583329063948764          1.0000   
         C         C         1.0       0.578229364880414   0.7677929663914075  0.38831894731586336          1.0000   
         C         C         1.0       0.5647202563632234  0.7684298272711925  0.3527463091669119 1.0000   
         H         H         1.0       0.6365825531384433  0.7044114462861041  0.18544214860868893          1.0000   
         H         H         1.0       0.5861675966138259  0.694541780156192   0.222239077818923  1.0000   
         H         H         1.0       0.5929125840055378  0.6647853600553278  0.23438429663522262          1.0000   
         H         H         1.0       0.6435153136329324  0.674965821797863   0.19507625814536342          1.0000   
         H         H         1.0       0.5765925640614652  0.7095029102089089  0.1325458960856932 1.0000   
         H         H         1.0       0.5675411701571756  0.7062748012532812  0.0327519455069496 1.0000   
         H         H         1.0       0.6162289676039042  0.7209317266477858  0.9808470317725746 1.0000   
         H         H         1.0       0.6265600554035827  0.7216227601528079  0.07965808248365414          1.0000   
         H         H         1.0       0.6009573963068625  0.7188816377568429  0.3001544055871641 1.0000   
         H         H         1.0       0.5790693855994539  0.7302773797028053  0.3593563313921369 1.0000   
         H         H         1.0       0.5602229656755091  0.7573168865321245  0.2211918615500429 1.0000   
         H         H         1.0       0.5793786035892139  0.7444592948832875  0.1567690723035037 1.0000   
         H         H         1.0       0.5364319380687848  0.7439851564750529  0.5272299633944326 1.0000   
         H         H         1.0       0.547861589932929   0.7609180401624468  0.45542862964819264          1.0000   
         H         H         1.0       0.54835179997755    0.7171336738691424  0.34813124966678716          1.0000   
         H         H         1.0       0.5395492360310805  0.6996162818421945  0.42737862712314467          1.0000   
         H         H         1.0       0.5353793955487509  0.7317633223858077  0.2615036826229849 1.0000   
         H         H         1.0       0.5052589736449562  0.7316545823345715  0.24653842432728426          1.0000   
         H         H         1.0       0.5006924997397036  0.775013337682231   0.34855569374840834          1.0000   
         H         H         1.0       0.5288182534999434  0.7755205240512453  0.3667870835618439 1.0000   
         H         H         1.0       0.54939584218535    0.7858756912071763  0.30388615405706204          1.0000   
         H         H         1.0       0.564481086598852   0.8107426031360718  0.3372622264428712 1.0000   
         H         H         1.0       0.5953118151410906  0.7797199202531175  0.4414359434742185 1.0000   
         H         H         1.0       0.5808838412930678  0.7562385068893724  0.4087329507438207 1.0000   
         C         C         1.0       0.6095763105425834  0.7522510944186526  0.7777203605478069 1.0000   
         C         C         1.0       0.602573035069542   0.7675316170762913  0.7616934046447424 1.0000   
         C         C         1.0       0.5936308884016944  0.7691069538747842  0.7103322125338649 1.0000   
         C         C         1.0       0.5923651300853924  0.7549058349877165  0.6738152371659774 1.0000   
         C         C         1.0       0.5974106198737918  0.7399248774255409  0.696495394845928  1.0000   
         C         C         1.0       0.6064049889208671  0.7383015061956361  0.7473943524547509 1.0000   
         H         H         1.0       0.605737293961248   0.7787291723808961  0.7866437156767473 1.0000   
         H         H         1.0       0.590072691152494   0.781465258845324   0.6955619209923473 1.0000   
         H         H         1.0       0.5954285250333125  0.7285613687480272  0.6771295170674823 1.0000   
         H         H         1.0       0.6116993543287995  0.7262759341232976  0.7622248761543464 1.0000   
         C         C         1.0       0.6091751920932326  0.7438222736573183  0.5652166009312963 1.0000   
         C         C         1.0       0.5914174399532178  0.7436883328448833  0.56901955351363   1.0000   
         C         C         1.0       0.5822350649935423  0.7363214788981349  0.5246650687124941 1.0000   
         C         C         1.0       0.5903816095481093  0.7298393888201199  0.47644730740329   1.0000   
         C         C         1.0       0.6077022234324232  0.7298635508246321  0.47657903254355316          1.0000   
         C         C         1.0       0.6171509901121239  0.7380182931755707  0.5179727666557118 1.0000   
         C         C         1.0       0.5814152660909355  0.7547183723688858  0.6168006286149685 1.0000   
         C         C         1.0       0.5782814668742935  0.7726283732199359  0.5865093088632208 1.0000   
         C         C         1.0       0.5639861147068814  0.7765964283379665  0.5556949743663957 1.0000   
         C         C         1.0       0.5617289370826596  0.7913040537593924  0.5271568723854146 1.0000   
         C         C         1.0       0.5751932446363374  0.8021622614656444  0.5205315296124471 1.0000   
         C         C         1.0       0.5899846898624272  0.7993589518837436  0.5504210241293468 1.0000   
         C         C         1.0       0.5916395885125862  0.7845152919747105  0.5819975107429428 1.0000   
         C         C         1.0       0.5603737734136891  0.7301148433068142  0.6402406149616441 1.0000   
         C         C         1.0       0.5457332388117883  0.7246694823717478  0.6673591312434615 1.0000   
         C         C         1.0       0.5353367486661944  0.7355235977420075  0.6964901127158609 1.0000   
         C         C         1.0       0.5401594501835185  0.7523920511932015  0.6964955998244453 1.0000   
         C         C         1.0       0.554256269080329   0.7578998660388742  0.6700806052114924 1.0000   
         C         C         1.0       0.5642303236697865  0.7470864395692998  0.6417873547608681 1.0000   
         C         C         1.0       0.5222869166759291  0.7300455259893844  0.7480173062004756 1.0000   
         C         C         1.0       0.49168232643497134           0.684199078263494  0.7258054373041273 1.0000   
         C         C         1.0       0.49489591880848377           0.6914291386682557 0.7764500927394664 1.0000   
         C         C         1.0       0.5058347832783004  0.7042464346598825  0.7831430166048958 1.0000   
         C         C         1.0       0.512877665750394   0.7123923769705182  0.7381511211221228 1.0000   
         C         C         1.0       0.5081590230984241  0.7056516393671146  0.6850119227969012 1.0000   
         C         C         1.0       0.4976043081251396  0.6923476692236948  0.6789943300798938 1.0000   
         C         C         1.0       0.5057893600754424  0.7422410237206745  0.7493301797647697 1.0000   
         C         C         1.0       0.4987041138064656  0.7476977836638636  0.6979421835308942 1.0000   
         C         C         1.0       0.48431384900710267           0.7574215389073244 0.6973433395397753 1.0000   
         C         C         1.0       0.47707058462998486           0.7624317180451938 0.7486047264137625 1.0000   
         C         C         1.0       0.4830839809353137  0.7560542332463601  0.7970829659193295 1.0000   
         C         C         1.0       0.49796648159071427           0.747169848623909  0.7984365838524893 1.0000   
         C         C         1.0       0.5376670464506491  0.74301400553835    0.830223089377266  1.0000   
         C         C         1.0       0.5510008968674477  0.7437021605330707  0.868656553154726  1.0000   
         C         C         1.0       0.5610743619632117  0.7295346401483208  0.8773762860996471 1.0000   
         C         C         1.0       0.5575436949237461  0.7156875572821528  0.8451868938055245 1.0000   
         C         C         1.0       0.5453738330039549  0.7154303137777732  0.8050195175197096 1.0000   
         C         C         1.0       0.5349081351451951  0.7286834773273867  0.7973846679354025 1.0000   
         H         H         1.0       0.6164156104440095  0.7484923875770062  0.5985698001239704 1.0000   
         H         H         1.0       0.5691996116071458  0.736229928890274   0.5245808983570112 1.0000   
         H         H         1.0       0.5822844990910482  0.7227044715837379  0.44617006332625575          1.0000   
         H         H         1.0       0.6309349309167775  0.7378914588454292  0.5142664914031526 1.0000   
         H         H         1.0       0.5527158417533017  0.7691166478327568  0.5595538036887739 1.0000   
         H         H         1.0       0.5498269359443921  0.794114763724768   0.5072723408651916 1.0000   
         H         H         1.0       0.6009152425955162  0.8081274485080424  0.5453266391967686 1.0000   
         H         H         1.0       0.6040452497960647  0.7829928253605785  0.6007750773542948 1.0000   
         H         H         1.0       0.5678669314555185  0.721197464037869   0.617936472262774  1.0000   
         H         H         1.0       0.5427844882525454  0.7111930368322587  0.6665914122154536 1.0000   
         H         H         1.0       0.5330087656553544  0.7616579485475272  0.7206892166501678 1.0000   
         H         H         1.0       0.558022726067691   0.7704217180930808  0.6805865349870102 1.0000   
         H         H         1.0       0.489408065067246   0.684951476630337   0.8130616202590223 1.0000   
         H         H         1.0       0.5082712978023537  0.7087020687762356  0.8278765798338893 1.0000   
         H         H         1.0       0.5128361383018459  0.7118774236310192  0.647545650215561  1.0000   
         H         H         1.0       0.49569460516123404           0.6861599359984424 0.6393557588209545 1.0000   
         H         H         1.0       0.5040691178683107  0.7433929662352219  0.6600660148942993 1.0000   
         H         H         1.0       0.48008793334202104           0.7625212069855434 0.6556302079913986 1.0000   
         H         H         1.0       0.4773279770385115  0.7601448980471855  0.8350424004019419 1.0000   
         H         H         1.0       0.5021093726586728  0.7426207079243586  0.8423191461260452 1.0000   
         H         H         1.0       0.529697829050747   0.7538574655156352  0.8205660670150247 1.0000   
         H         H         1.0       0.5533836843234768  0.7549621932083487  0.8872323602190303 1.0000   
         H         H         1.0       0.5642539292694306  0.7042881178239222  0.8532623576204392 1.0000   
         H         H         1.0       0.5438649227710576  0.7046149790363573  0.7794448698175936 1.0000   
         C         C         1.0       0.6345507472205153  0.5474932337702086  0.5570543231160177 1.0000   
         C         C         1.0       0.6477561390103148  0.5403883455176528  0.5273983802676245 1.0000   
         C         C         1.0       0.6542934421898936  0.5489941365648233  0.4814391557658605 1.0000   
         C         C         1.0       0.6476727443869311  0.5636929448745623  0.4604210384933823 1.0000   
         C         C         1.0       0.632322395514291   0.569314096884924   0.48440929142002903          1.0000   
         C         C         1.0       0.6262149457164617  0.5615489231825143  0.5316778091762318 1.0000   
         H         H         1.0       0.6530084498535026  0.5287978818332966  0.544935723973209  1.0000   
         H         H         1.0       0.6659438405604874  0.5440251362321634  0.46596891412586183          1.0000   
         H         H         1.0       0.6237863578771026  0.5777034184102583  0.4625404715067651 1.0000   
         H         H         1.0       0.6153640057418049  0.5667799439371667  0.551490038998593  1.0000   
         C         C         1.0       0.66446741645188    0.592312052331724   0.5190352318815492 1.0000   
         C         C         1.0       0.6652399261591816  0.5920151213821576  0.460094240176656  1.0000   
         C         C         1.0       0.672275482606078   0.6063212862102478  0.4356601128743011 1.0000   
         C         C         1.0       0.6749067906170817  0.6207988186634004  0.46526012742643036          1.0000   
         C         C         1.0       0.6720032177198778  0.6210601560879762  0.522409829801274  1.0000   
         C         C         1.0       0.6664602666953793  0.6070489340902505  0.5490978068843595 1.0000   
         C         C         1.0       0.6592945943263092  0.5761224405302086  0.42175557618697374          1.0000   
         C         C         1.0       0.6454450870129589  0.5805047486730907  0.3725052512525374 1.0000   
         C         C         1.0       0.6409326505119189  0.5968208166349045  0.35816216063423195          1.0000   
         C         C         1.0       0.6323304915097854  0.6010321377194592  0.3126346720019704 1.0000   
         C         C         1.0       0.6242867463128681  0.5884510134104509  0.2827809223558274 1.0000   
         C         C         1.0       0.6276204357636739  0.5720597905895194  0.2942625485626575 1.0000   
         C         C         1.0       0.6386979237038692  0.5679029821561554  0.33597735997208433          1.0000   
         C         C         1.0       0.6895522585797854  0.5634888283506213  0.4260734467825102 1.0000   
         C         C         1.0       0.7055188148197512  0.5648166478259293  0.405217251906208  1.0000   
         C         C         1.0       0.7090238640486777  0.5696554596452671  0.3490498312650263 1.0000   
         C         C         1.0       0.6956900519437353  0.5726503193037769  0.3135423271400001 1.0000   
         C         C         1.0       0.6796040595485987  0.5716656760958032  0.33507919306259953          1.0000   
         C         C         1.0       0.6762931372014006  0.5686901501168632  0.3923394803556904 1.0000   
         C         C         1.0       0.7277348100496939  0.5755660027311614  0.33032678629952705          1.0000   
         C         C         1.0       0.7227545834996375  0.6193643511824108  0.44098593388110224          1.0000   
         C         C         1.0       0.7322479526777689  0.605820708265476   0.4591067836235175 1.0000   
         C         C         1.0       0.7353763140207877  0.591763620569126   0.4230087893305528 1.0000   
         C         C         1.0       0.7286399761026876  0.5922404811489461  0.3689286420629258 1.0000   
         C         C         1.0       0.7202583571198776  0.6061582339496654  0.35275900258015136          1.0000   
         C         C         1.0       0.716789791984687   0.6187282227546261  0.38750310671773125          1.0000   
         C         C         1.0       0.7313923008973192  0.5780706949467291  0.2631789674611426 1.0000   
         C         C         1.0       0.7260859787847017  0.5654819036485246  0.22569315005703247          1.0000   
         C         C         1.0       0.7289946868931267  0.566678426311086   0.17050522171213517          1.0000   
         C         C         1.0       0.7382986015346085  0.5798632566041074  0.1504773829178458 1.0000   
         C         C         1.0       0.7435178120355488  0.5926117624051405  0.18703228109207745          1.0000   
         C         C         1.0       0.7408147309212875  0.5909234078437137  0.24258069400998195          1.0000   
         C         C         1.0       0.7583967381735597  0.5677638471765319  0.35145066758633026          1.0000   
         C         C         1.0       0.771420414649568   0.5568343098670488  0.35722668002040125          1.0000   
         C         C         1.0       0.7686378370888798  0.5396551151039123  0.355510596873568  1.0000   
         C         C         1.0       0.7522772314641242  0.5333122082186047  0.3528675646881547 1.0000   
         C         C         1.0       0.7392377674028521  0.5448475954248889  0.3467744432289428 1.0000   
         C         C         1.0       0.7417509674096879  0.562333503151259   0.34672768403489707          1.0000   
         H         H         1.0       0.6603146374615273  0.5810157339227827  0.5405185747173897 1.0000   
         H         H         1.0       0.6748698565749142  0.6056789099409545  0.3919008222378944 1.0000   
         H         H         1.0       0.680925884503131   0.6300411064467168  0.44058797417404544          1.0000   
         H         H         1.0       0.663381298278361   0.6074883623199068  0.5926903619708278 1.0000   
         H         H         1.0       0.6435386387879177  0.6071073506350153  0.3841596252623128 1.0000   
         H         H         1.0       0.6299338050433374  0.6142298431449689  0.3051633982831109 1.0000   
         H         H         1.0       0.6202855170821767  0.5631429455383964  0.2712099064152404 1.0000   
         H         H         1.0       0.6405722537138995  0.5538396211960158  0.3442944159720809 1.0000   
         H         H         1.0       0.6873923000128833  0.5602695307481224  0.47133121872201306          1.0000   
         H         H         1.0       0.7148388840281266  0.5629891950257666  0.43654140792983775          1.0000   
         H         H         1.0       0.6971982366709919  0.577725872253738   0.27020729101998125          1.0000   
         H         H         1.0       0.6701580831561698  0.5765140113814798  0.30569518431068915          1.0000   
         H         H         1.0       0.7359724128850477  0.6044819220654712  0.5022321032585492 1.0000   
         H         H         1.0       0.7414517836965631  0.5808829634189457  0.4428823978043966 1.0000   
         H         H         1.0       0.7153968051477526  0.6064089052566295  0.3093890208050715 1.0000   
         H         H         1.0       0.7097734866785664  0.6300634252142441  0.3719028769477015 1.0000   
         H         H         1.0       0.7192207796686776  0.5546673352633804  0.23992213049610134          1.0000   
         H         H         1.0       0.7235990744436342  0.5572064589843524  0.14222145622855398          1.0000   
         H         H         1.0       0.7519723664725503  0.602948225879366   0.1766588351598422 1.0000   
         H         H         1.0       0.7463788386883956  0.6006296230081057  0.26966639720476665          1.0000   
         H         H         1.0       0.7612420208065747  0.5814525437236854  0.3510234811601739 1.0000   
         H         H         1.0       0.7837562920233144  0.5622107239047404  0.36055697482242444          1.0000   
         H         H         1.0       0.7490171814436181  0.5199618028824377  0.34962849634425786          1.0000   
         H         H         1.0       0.7266641139352363  0.5395834203947182  0.3334099744945245 1.0000   
         C         C         1.0       0.7179870310011843  0.5962348605321941  0.030950358243373  1.0000   
         C         C         1.0       0.7064589039041254  0.5830305695863117  0.042975684051137275         1.0000   
         C         C         1.0       0.6899640895454495  0.5859228626292632  0.026475166831081424         1.0000   
         C         C         1.0       0.6837049283302482  0.6009894763420295  0.0039667898646458255        1.0000   
         C         C         1.0       0.6958676750789027  0.6121070973145306  0.9844596180933829 1.0000   
         C         C         1.0       0.7126408601342894  0.6092704723077299  0.997812581807899  1.0000   
         H         H         1.0       0.7088771389712786  0.5722907458438062  0.0691153162029372 1.0000   
         H         H         1.0       0.6806425252179307  0.5770551450843295  0.038058569456966396         1.0000   
         H         H         1.0       0.6918768397528857  0.622114223823653   0.9584150974554602 1.0000   
         H         H         1.0       0.7214505601822444  0.6183828836840443  0.9851423123187705 1.0000   
         C         C         1.0       0.6660978955418015  0.6321869282666283  0.0324249805761232 1.0000   
         C         C         1.0       0.6584389162575635  0.6215608154526118  0.9943174682282565 1.0000   
         C         C         1.0       0.643991659420215   0.6278858119629995  0.9684672281238682 1.0000   
         C         C         1.0       0.6384042576295964  0.6437250342711354  0.9778176556138749 1.0000   
         C         C         1.0       0.6459065031248792  0.6541559189816883  0.01819580744815963          1.0000   
         C         C         1.0       0.6603058967570811  0.6483628594538624  0.04482172283555142          1.0000   
         C         C         1.0       0.6643688558337968  0.6028186019621703  0.9838483441593665 1.0000   
         C         C         1.0       0.6516090964801636  0.5918755151862543  0.022997086180073234         1.0000   
         C         C         1.0       0.6390190151955817  0.5823498475033794  0.9979197129224154 1.0000   
         C         C         1.0       0.629320805510967   0.5711102673382277  0.03028583108638072          1.0000   
         C         C         1.0       0.6311674449764687  0.5701626404003148  0.08893283704352917          1.0000   
         C         C         1.0       0.6426358556662055  0.580274565764516   0.11394696599546522          1.0000   
         C         C         1.0       0.6526290100252299  0.5913799378453859  0.08252349261091996          1.0000   
         C         C         1.0       0.6678347724186666  0.6085270045104556  0.8794031395582853 1.0000   
         C         C         1.0       0.6725274927473751  0.6032599631856131  0.8270081647535835 1.0000   
         C         C         1.0       0.6774274393598356  0.5870486198043683  0.8163377073912094 1.0000   
         C         C         1.0       0.6741105979595596  0.5751480018911052  0.856647279209473  1.0000   
         C         C         1.0       0.6681333807911362  0.5798201672405884  0.9083464895595823 1.0000   
         C         C         1.0       0.6656528949524266  0.5970328800204399  0.9203663677034473 1.0000   
         C         C         1.0       0.6886677584351141  0.5824317096655026  0.7612685807670989 1.0000   
         C         C         1.0       0.7140903370388031  0.6253722744136544  0.6827733363176173 1.0000   
         C         C         1.0       0.7154001119047287  0.6226320428291626  0.74050895425899   1.0000   
         C         C         1.0       0.7077000695302715  0.6089638169460014  0.7647908895984871 1.0000   
         C         C         1.0       0.6987556385678679  0.5977384736218133  0.7321521465905912 1.0000   
         C         C         1.0       0.7000650450949969  0.5993500223436905  0.6724113742257078 1.0000   
         C         C         1.0       0.7077393902644398  0.6125746000884612  0.6485448373438627 1.0000   
         C         C         1.0       0.6735052338665953  0.5757007432736402  0.7223483191756123 1.0000   
         C         C         1.0       0.6695692469143826  0.558634063775056   0.7296155070999223 1.0000   
         C         C         1.0       0.6540171243948861  0.5527277737609125  0.7143210664673354 1.0000   
         C         C         1.0       0.642465131976913   0.5620540915999183  0.6873950560304555 1.0000   
         C         C         1.0       0.6461114798851875  0.5786129197269763  0.6765926567432669 1.0000   
         C         C         1.0       0.6612484618690059  0.5854110708840602  0.6976010251855371 1.0000   
         C         C         1.0       0.7099144068485033  0.5588541035389031  0.7295716972217235 1.0000   
         C         C         1.0       0.7234380463158873  0.5483847882033734  0.7363287081504181 1.0000   
         C         C         1.0       0.7316120579302833  0.5488303326338851  0.7856102833962416 1.0000   
         C         C         1.0       0.7276532858446951  0.5605987704566475  0.8278999984895872 1.0000   
         C         C         1.0       0.7136247901363552  0.5700645506428741  0.8212164963563623 1.0000   
         C         C         1.0       0.7048974496672088  0.5698279759975066  0.7716051377863614 1.0000   
         H         H         1.0       0.6752346238983842  0.6279799534750927  0.06270050483531842          1.0000   
         H         H         1.0       0.6360680701841377  0.6199440131773502  0.9390013809098983 1.0000   
         H         H         1.0       0.6282822947555399  0.6496697803549759  0.9530254794240716 1.0000   
         H         H         1.0       0.665669785761075   0.6549170201424453  0.08072376732470833          1.0000   
         H         H         1.0       0.6384547007888729  0.5828630169586072  0.9545530574918912 1.0000   
         H         H         1.0       0.6222787786913743  0.5622665233191928  0.00990811331022634          1.0000   
         H         H         1.0       0.6467314923016733  0.5794918624458767  0.1568722763564551 1.0000   
         H         H         1.0       0.6619446246407756  0.5986598916749368  0.10840192279239605          1.0000   
         H         H         1.0       0.6663865707861008  0.6217188798928003  0.8813905911157994 1.0000   
         H         H         1.0       0.6718010976603672  0.6115505256422596  0.7921179017503603 1.0000   
         H         H         1.0       0.6771911885085387  0.562352720129924   0.8503651070806537 1.0000   
         H         H         1.0       0.6678629700499499  0.5712364369451396  0.9462026255857227 1.0000   
         H         H         1.0       0.7210969189999146  0.6317718132254359  0.7696735221416876 1.0000   
         H         H         1.0       0.7072470948160273  0.6077475012478363  0.8107663917836638 1.0000   
         H         H         1.0       0.6962856295230637  0.5885972424853931  0.6467236265378447 1.0000   
         H         H         1.0       0.7069920894013758  0.6147733489926386  0.6033199259858787 1.0000   
         H         H         1.0       0.677949691002653   0.550309653054775   0.754674772835703  1.0000   
         H         H         1.0       0.6514396475859725  0.5394630365139652  0.7199816717631169 1.0000   
         H         H         1.0       0.6379314274293846  0.5875722888509586  0.6535963180805143 1.0000   
         H         H         1.0       0.6626289593788245  0.59906165711259    0.6965107499090915 1.0000   
         H         H         1.0       0.7038276864371112  0.5592289868185245  0.6868044290125919 1.0000   
         H         H         1.0       0.7273413296958856  0.5401973286293731  0.7032768356690899 1.0000   
         H         H         1.0       0.7354528742932798  0.5597081432861811  0.867864360118979  1.0000   
         H         H         1.0       0.7104561076066953  0.5788825506582416  0.8527228708798137 1.0000   
         C         C         1.0       0.59201077547516    0.6065259397214302  0.3187734485886241 1.0000   
         C         C         1.0       0.5941280896404363  0.6001132039791084  0.37194450101217447          1.0000   
         C         C         1.0       0.5959918133454242  0.6103807027163115  0.4192067086979019 1.0000   
         C         C         1.0       0.5965850440684163  0.627614951510175   0.41105160698126825          1.0000   
         C         C         1.0       0.5947484894630508  0.6331177324193786  0.35702663422560993          1.0000   
         C         C         1.0       0.5932555230009348  0.6230201452837755  0.31103656030591254          1.0000   
         H         H         1.0       0.5949160687964808  0.5872245422056093  0.38012878918493087          1.0000   
         H         H         1.0       0.5981189974469067  0.6040692057016966  0.45850484906610095          1.0000   
         H         H         1.0       0.5956100361161595  0.6464581053763486  0.351125516311506  1.0000   
         H         H         1.0       0.5903492449912886  0.6277687737609967  0.2705288962641549 1.0000   
         C         C         1.0       0.6193181212797924  0.659822826431077   0.428747352146984  1.0000   
         C         C         1.0       0.6031014131892569  0.6578545156412713  0.4522526110048461 1.0000   
         C         C         1.0       0.5960251121461999  0.6728566609073154  0.47271635757694735          1.0000   
         C         C         1.0       0.6038101957588187  0.6881984113370229  0.4726512471542858 1.0000   
         C         C         1.0       0.6186943427816636  0.6895556715167501  0.44334948648248845          1.0000   
         C         C         1.0       0.6268266925745123  0.6751475972480379  0.42317841760430974          1.0000   
         C         C         1.0       0.5952390637699326  0.6402425549836901  0.4666214113269733 1.0000   
         C         C         1.0       0.6037238716573698  0.6354696695993387  0.5249020699399358 1.0000   
         C         C         1.0       0.5982529460108849  0.6436666088966151  0.5732042094723632 1.0000   
         C         C         1.0       0.6041592649577695  0.6397875130029608  0.6254851000162244 1.0000   
         C         C         1.0       0.6162575154815825  0.6283195064444854  0.6327885447528188 1.0000   
         C         C         1.0       0.6224245438197912  0.6203780058457957  0.5849269221002285 1.0000   
         C         C         1.0       0.6161921661590897  0.6241736852048935  0.5318001593320537 1.0000   
         C         C         1.0       0.5648326086482349  0.6474089800316192  0.4276014645819924 1.0000   
         C         C         1.0       0.5480860138214777  0.6441132587154046  0.4237797356292097 1.0000   
         C         C         1.0       0.5400874380710781  0.6330316477891291  0.46063965713318095          1.0000   
         C         C         1.0       0.5505595597467344  0.6266091017198746  0.5039637019308092 1.0000   
         C         C         1.0       0.5677005145926864  0.6287443331767724  0.5050330029777734 1.0000   
         C         C         1.0       0.5752694884860837  0.639336800456501   0.4676015639666076 1.0000   
         C         C         1.0       0.5198681940003648  0.6314022592582402  0.4539011809967642 1.0000   
         C         C         1.0       0.5116572049331001  0.6836357286523841  0.5052000732392282 1.0000   
         C         C         1.0       0.5097950912320514  0.6790851585937511  0.44861540137367795          1.0000   
         C         C         1.0       0.5111184247033631  0.6625556794988281  0.4335029774764418 1.0000   
         C         C         1.0       0.5143575699187432  0.6501225773845647  0.474557341080075  1.0000   
         C         C         1.0       0.5166757520733791  0.6551352207774476  0.5313481562669399 1.0000   
         C         C         1.0       0.5154003416635835  0.6716105624707251  0.5459789521584626 1.0000   
         C         C         1.0       0.512418665485729   0.6158897593992025  0.4886964895475709 1.0000   
         C         C         1.0       0.5201272616090423  0.5999414976953933  0.487991217947052  1.0000   
         C         C         1.0       0.5128197480756651  0.5857277531303453  0.5110838350128648 1.0000   
         C         C         1.0       0.49691212564816944           0.5872721495408457 0.5342620943443083 1.0000   
         C         C         1.0       0.48927997195026596           0.6031913263737755 0.5370836543338389 1.0000   
         C         C         1.0       0.49741785558408924           0.6176605410597324 0.5175892736844301 1.0000   
         C         C         1.0       0.4974468202960429  0.6286126610935163  0.3735097855192806 1.0000   
         C         C         1.0       0.49166485220003325           0.6229673497205442 0.32337234324042835          1.0000   
         C         C         1.0       0.5029660709544735  0.6152018284046482  0.28658610761529213          1.0000   
         C         C         1.0       0.5195594286344923  0.6124772738327706  0.30370054204790947          1.0000   
         C         C         1.0       0.5248269964758788  0.6185305535638894  0.3553480786153711 1.0000   
         C         C         1.0       0.5147153345831104  0.6268300178839773  0.39094902480759197          1.0000   
         H         H         1.0       0.6258069609097205  0.6497073137892287  0.40869819905766525          1.0000   
         H         H         1.0       0.5838017649274412  0.6716073926131776  0.49299269218995945          1.0000   
         H         H         1.0       0.5959797761694534  0.697653088600805   0.4904998785369698 1.0000   
         H         H         1.0       0.6384722457127066  0.6763180109149605  0.39923088128617734          1.0000   
         H         H         1.0       0.5886835770956913  0.6541651262355689  0.5674129687886154 1.0000   
         H         H         1.0       0.5975214398292134  0.6459371442958957  0.659650524832923  1.0000   
         H         H         1.0       0.632827743706362   0.6117689936650873  0.5877429283133606 1.0000   
         H         H         1.0       0.623451240242581   0.6193846623940402  0.49640028422902643          1.0000   
         H         H         1.0       0.5712910613647869  0.6533512411651758  0.3935382155958929 1.0000   
         H         H         1.0       0.5403651325734409  0.6504491566563246  0.3950380982679974 1.0000   
         H         H         1.0       0.5443637808328659  0.6186743695818542  0.5348317721579394 1.0000   
         H         H         1.0       0.5740550797316176  0.6214537434032827  0.5378020713591952 1.0000   
         H         H         1.0       0.5090319150834165  0.6888792966486161  0.41805870468266343          1.0000   
         H         H         1.0       0.5114640748387524  0.6591336583208969  0.3877680119195529 1.0000   
         H         H         1.0       0.5199775722537632  0.6465083263953934  0.5619406117787582 1.0000   
         H         H         1.0       0.518124043932766   0.6745339932137534  0.589789230878084  1.0000   
         H         H         1.0       0.531415657124228   0.5982687960503522  0.46504926680881276          1.0000   
         H         H         1.0       0.5189746006843297  0.5739439874510477  0.5064403220630227 1.0000   
         H         H         1.0       0.4774068306904745  0.6047534578586852  0.5582751244031969 1.0000   
         H         H         1.0       0.4891615204798365  0.6291115965117328  0.5244851461676686 1.0000   
         H         H         1.0       0.48837404113050875           0.6345960936184085 0.4024022187719294 1.0000   
         H         H         1.0       0.4790822228922794  0.6249952909702033  0.30805799617037083          1.0000   
         H         H         1.0       0.5293221428281321  0.6065471593978352  0.27976457063681515          1.0000   
         H         H         1.0       0.5370037861550458  0.6141550428511441  0.3684746828556687 1.0000   
         C         C         1.0       0.592396481001334   0.560157823775081   0.09714286008272421          1.0000   
         C         C         1.0       0.585673410896235   0.5705182167039451  0.1364402013536643 1.0000   
         C         C         1.0       0.5754950965172874  0.5839277651133599  0.12142113561087897          1.0000   
         C         C         1.0       0.5721122040507137  0.5870881354575543  0.06558828545407125          1.0000   
         C         C         1.0       0.5781219284920653  0.5750750768278508  0.02665071103715322          1.0000   
         C         C         1.0       0.5878072619515405  0.5619150815427549  0.04250035134628205          1.0000   
         H         H         1.0       0.5875045561645579  0.5698585976272024  0.18164894782909569          1.0000   
         H         H         1.0       0.5706931685983668  0.5913247204955779  0.15572889833959258          1.0000   
         H         H         1.0       0.5794139733618164  0.578486598772318   0.982110927490069  1.0000   
         H         H         1.0       0.5938516748111126  0.553722661965522   0.010704351614147845         1.0000   
         C         C         1.0       0.5979996213870981  0.6123903083983955  0.052637118129416516         1.0000   
         C         C         1.0       0.5816446763659797  0.6183588574442416  0.05850967540824348          1.0000   
         C         C         1.0       0.5806789285866829  0.6348770430661831  0.07773232553946598          1.0000   
         C         C         1.0       0.5944710267852619  0.6431105986580854  0.1009365783471818 1.0000   
         C         C         1.0       0.609853772887821   0.6347371951396052  0.10746738547011192          1.0000   
         C         C         1.0       0.611523890952029   0.619732439075395   0.07957166124190151          1.0000   
         C         C         1.0       0.565094068108076   0.6050672496532237  0.048800279707394756         1.0000   
         C         C         1.0       0.5488522095730016  0.6072083869650122  0.0903249017153096 1.0000   
         C         C         1.0       0.5340662959151646  0.5988220349758431  0.07973614518039951          1.0000   
         C         C         1.0       0.5196254824910745  0.6014559693823222  0.11098355371637707          1.0000   
         C         C         1.0       0.5195187725293517  0.6143872279696407  0.15260578864113267          1.0000   
         C         C         1.0       0.5347589947929943  0.6224955567461892  0.1654938660413006 1.0000   
         C         C         1.0       0.5495462394547611  0.6179008299847183  0.13701772038738072          1.0000   
         C         C         1.0       0.5577918104896816  0.6229268899061524  0.9598402263110899 1.0000   
         C         C         1.0       0.5517500673773414  0.6248202058841219  0.9050458081061337 1.0000   
         C         C         1.0       0.5469514249010445  0.6102096837631374  0.8736958153187856 1.0000   
         C         C         1.0       0.5493626896415847  0.5954313620297028  0.8990783040103065 1.0000   
         C         C         1.0       0.5512064589862073  0.5947318954127584  0.958015112730536  1.0000   
         C         C         1.0       0.5575972478726495  0.607793122818981   0.9885908120036893 1.0000   
         C         C         1.0       0.5430427561306106  0.6100319969009041  0.8060797660534668 1.0000   
         C         C         1.0       0.5062873359274991  0.645732574278022   0.7377472503726704 1.0000   
         C         C         1.0       0.5186019931179686  0.640073549421929   0.7051091462284756 1.0000   
         C         C         1.0       0.5313642605639327  0.6303148074337855  0.7265015320640302 1.0000   
         C         C         1.0       0.5316743515024893  0.6253885198507083  0.7831045442414163 1.0000   
         C         C         1.0       0.5186816940508925  0.6323379385495562  0.8174375464073546 1.0000   
         C         C         1.0       0.5061009684491563  0.6421303266075956  0.7947706107244703 1.0000   
         C         C         1.0       0.5307450481615547  0.5951846234909851  0.7852152324790187 1.0000   
         C         C         1.0       0.5331183401622845  0.5867885267710655  0.7339339688921632 1.0000   
         C         C         1.0       0.5225687648406218  0.5732214471259356  0.7214284946485299 1.0000   
         C         C         1.0       0.5093448785738909  0.5687051198415637  0.7543841355581657 1.0000   
         C         C         1.0       0.5063354080402646  0.5777345443378356  0.8022956348354449 1.0000   
         C         C         1.0       0.5166321895046488  0.5910913909129837  0.8182501212132676 1.0000   
         C         C         1.0       0.5707394529149994  0.6252575018867711  0.7703771855798056 1.0000   
         C         C         1.0       0.5871952884843937  0.6265213003194959  0.7553529506029549 1.0000   
         C         C         1.0       0.5963084982208091  0.6115858115710407  0.7444837598643095 1.0000   
         C         C         1.0       0.5885156819299883  0.5967923108127283  0.7561014553592558 1.0000   
         C         C         1.0       0.5722064060369795  0.5958443889538397  0.7751124980613401 1.0000   
         C         C         1.0       0.5626190752153231  0.6100687250015401  0.7822599666566511 1.0000   
         H         H         1.0       0.6009158905361346  0.6004814034713346  0.0313962444431608 1.0000   
         H         H         1.0       0.5689413597562903  0.6412358913330864  0.07793331234117984          1.0000   
         H         H         1.0       0.5921518005097891  0.6550770279934863  0.12242571236133999          1.0000   
         H         H         1.0       0.623959935444335   0.613369366013725   0.08610213336765526          1.0000   
         H         H         1.0       0.5336465198555738  0.5906116053337718  0.0433701356973577 1.0000   
         H         H         1.0       0.5080042279921211  0.5941517219883804  0.1019571247117569 1.0000   
         H         H         1.0       0.5349667604261736  0.6322718388947052  0.20101730613149094          1.0000   
         H         H         1.0       0.5620905385117982  0.6211210773139911  0.15060210246526834          1.0000   
         H         H         1.0       0.5622348202545439  0.6337113335470695  0.9794867964065547 1.0000   
         H         H         1.0       0.5501920739887045  0.6368392329229032  0.882788528437098  1.0000   
         H         H         1.0       0.5471386401309905  0.5834401734266075  0.8817692719451972 1.0000   
         H         H         1.0       0.5478675056892842  0.5832130637136388  0.9798778903348697 1.0000   
         H         H         1.0       0.5190486070183585  0.6416622295713733  0.6605420768741858 1.0000   
         H         H         1.0       0.5402207860817373  0.6256932275788403  0.6940061441554699 1.0000   
         H         H         1.0       0.5180290259637984  0.6306622699823672  0.863333040808861  1.0000   
         H         H         1.0       0.4970143479158412  0.6479591260701001  0.8236932812387759 1.0000   
         H         H         1.0       0.5429755262904513  0.5891057772871953  0.7050116604353267 1.0000   
         H         H         1.0       0.5248417801155837  0.5660485945085406  0.6824985039423007 1.0000   
         H         H         1.0       0.4961595068171721  0.5740420134490196  0.830636932375524  1.0000   
         H         H         1.0       0.5141723067049409  0.5953212779363756  0.8610959112417838 1.0000   
         H         H         1.0       0.5641628064090742  0.6376785584903288  0.7733040838332669 1.0000   
         H         H         1.0       0.5933140712555917  0.6380617336733644  0.7499441072289292 1.0000   
         H         H         1.0       0.5938669666023134  0.5847911717897152  0.7427059449025731 1.0000   
         H         H         1.0       0.5671465218951426  0.5841310407295243  0.7915816602196823 1.0000   
         C         C         1.0       0.08490742273318763           0.25330723464457094          0.5207461617562007 1.0000   
         C         C         1.0       0.06846789219315519           0.2508925237576584 0.4986580627844993 1.0000   
         C         C         1.0       0.06121429676907497           0.23529345988975653          0.49720386355455276          1.0000   
         C         C         1.0       0.06981778806009542           0.22122845481495088          0.5151388782434548 1.0000   
         C         C         1.0       0.0859038295554948  0.22345195351546324           0.5355580654275676 1.0000   
         C         C         1.0       0.09419594682411025           0.2390674711980181 0.5359603235247185 1.0000   
         H         H         1.0       0.06092658987696353           0.2619836342416862 0.4861298233290817 1.0000   
         H         H         1.0       0.04810298011332215           0.23347669631714715          0.48444807983273447          1.0000   
         H         H         1.0       0.09267628338330192           0.21221688233444622          0.5514830713538179 1.0000   
         H         H         1.0       0.10654370946538627           0.23982568346721123          0.5506776851762418 1.0000   
         C         C         1.0       0.0825757179645017  0.1831178655612409  0.48203564152954353          1.0000   
         C         C         1.0       0.06835656653401978           0.1852222025018879 0.5160713486222404 1.0000   
         C         C         1.0       0.060422909861808316          0.17132999423934286          0.5382617953954002 1.0000   
         C         C         1.0       0.06505482220514969           0.15534622188810326          0.5209803474457958 1.0000   
         C         C         1.0       0.07771891872749781           0.15333470638689747          0.4813700329438697 1.0000   
         C         C         1.0       0.08664378764057967           0.16697576056530458          0.46544753428651836          1.0000   
         C         C         1.0       0.05964386400257449           0.20356608381389643          0.5229790710929213 1.0000   
         C         C         1.0       0.04500550694905758           0.2016110729768521 0.47608196157743804          1.0000   
         C         C         1.0       0.029771866877170927          0.1941291198591755 0.4901651685902087 1.0000   
         C         C         1.0       0.018624832814164716          0.18931692858120544          0.44717133464821696          1.0000   
         C         C         1.0       0.02175944113320849           0.19286130657413345          0.3911498476943409 1.0000   
         C         C         1.0       0.036814834800170004          0.20066370064327996          0.3784797963643323 1.0000   
         C         C         1.0       0.04864621517369905           0.20406070225560735          0.4196755828177145 1.0000   
         C         C         1.0       0.06597906060150627           0.19932429171102814          0.6286853934510473 1.0000   
         C         C         1.0       0.06105007873836432           0.19775825901496044          0.6823014192712374 1.0000   
         C         C         1.0       0.04430756869634633           0.2002172168099375 0.6987813147699583 1.0000   
         C         C         1.0       0.034494324929556175          0.21023278353381994          0.665706075194306  1.0000   
         C         C         1.0       0.0395423132909527  0.21217576943272157           0.60994541437521   1.0000   
         C         C         1.0       0.05405291022679215           0.20515146016633895          0.5896773835910434 1.0000   
         C         C         1.0       0.03703113266651803           0.1883784684342657 0.7502458465984136 1.0000   
         C         C         1.0       0.04049137193684471           0.13400000892382744          0.7059321657397344 1.0000   
         C         C         1.0       0.04116934793942795           0.13927757273832603          0.7619216890349976 1.0000   
         C         C         1.0       0.0400994550889997  0.15673627597704287           0.7762768667949926 1.0000   
         C         C         1.0       0.03894803134308655           0.16884453685951353          0.7362950999714138 1.0000   
         C         C         1.0       0.039038148140285056          0.16324279326148225          0.6792919188879696 1.0000   
         C         C         1.0       0.038059617165653536          0.1465708658529446 0.664773830844095  1.0000   
         C         C         1.0       0.01674726616880995           0.18936596915743245          0.7591048266585056 1.0000   
         C         C         1.0       0.006181952063898377          0.18616738297926969          0.7131295016645449 1.0000   
         C         C         1.0       0.9893346183544488  0.1838564818817602  0.720159532574205  1.0000   
         C         C         1.0       0.9825822416600257  0.18421675204493992           0.7725415745631614 1.0000   
         C         C         1.0       0.9918835436683324  0.18741585392277446           0.8176094660042402 1.0000   
         C         C         1.0       0.009250379062309078          0.18925310469222992          0.8113229571090923 1.0000   
         C         C         1.0       0.04351022988002806           0.21094038024794776          0.8238418265384417 1.0000   
         C         C         1.0       0.053288100183456644          0.21785603199526732          0.8638477253138198 1.0000   
         C         C         1.0       0.06776395687336723           0.21035651580705647          0.88332901898424   1.0000   
         C         C         1.0       0.07162660558983402           0.19497907139400195          0.86038369019938   1.0000   
         C         C         1.0       0.061706815944002624          0.18760328959952863          0.8196599260444545 1.0000   
         C         C         1.0       0.04744841602654337           0.19572373817806338          0.7998727039934045 1.0000   
         H         H         1.0       0.08890390994767428           0.19385787667841395          0.4622718749641121 1.0000   
         H         H         1.0       0.04783748289944323           0.1707125583605031 0.5598967742647493 1.0000   
         H         H         1.0       0.05744985044497364           0.14499850118697438          0.5387681474457284 1.0000   
         H         H         1.0       0.09901407559345632           0.16502064934144545          0.44368358245741785          1.0000   
         H         H         1.0       0.02696925081597512           0.19234316702198476          0.5336926252180322 1.0000   
         H         H         1.0       0.0065942897665547395         0.1842529301175336 0.46088215517943676          1.0000   
         H         H         1.0       0.03956213980739731           0.20265202965739015          0.3368099204390276 1.0000   
         H         H         1.0       0.06116263499329633           0.2087250417950955 0.4065628949643187 1.0000   
         H         H         1.0       0.07847271125814159           0.195303530556582  0.6175244918517867 1.0000   
         H         H         1.0       0.06901751074935158           0.1926712172504534 0.7128715404464064 1.0000   
         H         H         1.0       0.022510366669729942          0.2135069313878481 0.6799996571944806 1.0000   
         H         H         1.0       0.030368816180965652          0.21844703522576836          0.5803977941553498 1.0000   
         H         H         1.0       0.0414337903044808  0.12998476811765497           0.7949142456450181 1.0000   
         H         H         1.0       0.038008327493948224          0.1600475107129312 0.8228453514687428 1.0000   
         H         H         1.0       0.03723675783359792           0.17263280631325822          0.6467373599706498 1.0000   
         H         H         1.0       0.03573611522741271           0.14301158342694026          0.6219502522124583 1.0000   
         H         H         1.0       0.01130569646018209           0.18581333292580207          0.6704703920918269 1.0000   
         H         H         1.0       0.9809802000540051  0.18084696096934713           0.6852405070206838 1.0000   
         H         H         1.0       0.9885430868997025  0.18656041722980968           0.8608672268659392 1.0000   
         H         H         1.0       0.01651323062993071           0.1895699268356229 0.8519079362361078 1.0000   
         H         H         1.0       0.03420516530942708           0.21845981842233964          0.8056104193794362 1.0000   
         H         H         1.0       0.051210240868508894          0.23047681383838817          0.8755972225804379 1.0000   
         H         H         1.0       0.08439887694662751           0.19037899646644568          0.8688191675667978 1.0000   
         H         H         1.0       0.06696954956187717           0.17708294626176957          0.8013772424866729 1.0000   
         C         C         1.0       0.06891416588195609           0.16704389708260908          0.27393238782353   1.0000   
         C         C         1.0       0.06094534723410394           0.17991801160070767          0.24475547282631593          1.0000   
         C         C         1.0       0.05313221525222045           0.1760321474279449 0.19379600616975523          1.0000   
         C         C         1.0       0.05520753010058255           0.16033166367281615          0.16827171496002236          1.0000   
         C         C         1.0       0.06316597708454075           0.14785329421991134          0.20070270939483748          1.0000   
         C         C         1.0       0.07043481432457455           0.15152820750822737          0.2521144958853436 1.0000   
         H         H         1.0       0.05994269650490258           0.1925711063450784 0.25616338799245586          1.0000   
         H         H         1.0       0.04723625766238837           0.18619365168687507          0.17215039717508995          1.0000   
         H         H         1.0       0.06670841043073517           0.13584906786416878          0.18473579072205504          1.0000   
         H         H         1.0       0.07874985139957347           0.14269608987241061          0.27015604082875355          1.0000   
         C         C         1.0       0.07345679124813365           0.1387418548664601 0.0727714665641519 1.0000   
         C         C         1.0       0.05630532147375922           0.1412670572895051 0.07527083300350834          1.0000   
         C         C         1.0       0.04627346830320178           0.1302680567778474 0.043309017791733906         1.0000   
         C         C         1.0       0.053463558451599225          0.11747204613164738          0.014292374491845061         1.0000   
         C         C         1.0       0.07036691021059971           0.11505208016439179          0.011888291060833556         1.0000   
         C         C         1.0       0.08086599863959898           0.12615447810475464          0.039043387331790136         1.0000   
         C         C         1.0       0.04943236206903556           0.15812243495778758          0.10485169345094847          1.0000   
         C         C         1.0       0.0566506918328844  0.17286984415121107           0.06684762183524984          1.0000   
         C         C         1.0       0.047356825390798996          0.17916197403998355          0.02104043586564397          1.0000   
         C         C         1.0       0.05118155868249441           0.19420082976442127          0.996401568311308  1.0000   
         C         C         1.0       0.06546164574381241           0.2029616503698566 0.012718288920843701         1.0000   
         C         C         1.0       0.07707997980154802           0.19550479809784965          0.04960669845490817          1.0000   
         C         C         1.0       0.07235077965185277           0.18111683624577074          0.0756625607901571 1.0000   
         C         C         1.0       0.021772723101605607          0.14335435141640235          0.1415484330822665 1.0000   
         C         C         1.0       0.004360953432881454          0.14264476902187673          0.1418445808019726 1.0000   
         C         C         1.0       0.9938949997165866  0.1560135480977652  0.12905141663803588          1.0000   
         C         C         1.0       0.0017579338519617682         0.17086337452061404          0.1175536258820793 1.0000   
         C         C         1.0       0.0193345177699078  0.1710385374555466  0.10750884787529058          1.0000   
         C         C         1.0       0.029604740283202036          0.1572941762136003 0.11798778691770884          1.0000   
         C         C         1.0       0.9737024490561687  0.15616523327063003           0.13484264037936897          1.0000   
         C         C         1.0       0.9490462233584898  0.10797775765520745           0.12824146180489748          1.0000   
         C         C         1.0       0.943063611596675   0.12047859807910719           0.16150620450673941          1.0000   
         C         C         1.0       0.9505307282247173  0.1358294361472036  0.16275521528021303          1.0000   
         C         C         1.0       0.9648396696866496  0.13933137468961015           0.13202843727030206          1.0000   
         C         C         1.0       0.9694730454871788  0.1271086783595305  0.09274422831426166          1.0000   
         C         C         1.0       0.9624013019968695  0.11104188243481417           0.09451632222017815          1.0000   
         C         C         1.0       0.9650489029246381  0.16591816895909864           0.08211756695562467          1.0000   
         C         C         1.0       0.9723040250979453  0.16435709265438775           0.030758489423211355         1.0000   
         C         C         1.0       0.9677809562760094  0.1743459214571765  0.9865156214577443 1.0000   
         C         C         1.0       0.9558387844263283  0.18646487643275378           0.9918363191265638 1.0000   
         C         C         1.0       0.9483184233270997  0.18793119084481386           0.04468777754505049          1.0000   
         C         C         1.0       0.9531177494998924  0.17879324633648647           0.08980362027521371          1.0000   
         C         C         1.0       0.9744487619645965  0.18162841663492107           0.20561230826337942          1.0000   
         C         C         1.0       0.9795856276560597  0.1875328715916642  0.257438574060817  1.0000   
         C         C         1.0       0.9827530673017659  0.17708844226821482           0.30090179034326464          1.0000   
         C         C         1.0       0.9800261180779747  0.16041373647836216           0.294888270026851  1.0000   
         C         C         1.0       0.97588993056667    0.15344910686787597           0.24362052638692633          1.0000   
         C         C         1.0       0.972689967015656   0.1641535922650453  0.19659450051295616          1.0000   
         H         H         1.0       0.08184684568168721           0.14648517379843323          0.09685243146682021          1.0000   
         H         H         1.0       0.032539826100563385          0.1311478023114131 0.039107401963220045         1.0000   
         H         H         1.0       0.04381726639408745           0.1097103494980418 0.9914324311974778 1.0000   
         H         H         1.0       0.0940912155934619  0.12558597586859654           0.037225365061036575         1.0000   
         H         H         1.0       0.03657515427003544           0.17244032538019127          0.007497801128125703         1.0000   
         H         H         1.0       0.04232036102497383           0.19911906377238112          0.9612501864570906 1.0000   
         H         H         1.0       0.08910318611010593           0.2012929337752542 0.05818919986787052          1.0000   
         H         H         1.0       0.08022918752332142           0.17709071615618494          0.11146137324269012          1.0000   
         H         H         1.0       0.02890001550656307           0.13241743663373107          0.1511133530835589 1.0000   
         H         H         1.0       0.9980463452321698  0.13109138413031182           0.1509758920652521 1.0000   
         H         H         1.0       0.9941417953989709  0.18118732335975946           0.10718753037458906          1.0000   
         H         H         1.0       0.025083634352336848          0.18213252464099142          0.08883910134311712          1.0000   
         H         H         1.0       0.9317573809868256  0.11913864299938492           0.18689764173985368          1.0000   
         H         H         1.0       0.9444424276972957  0.14504713304803185           0.19135725210299764          1.0000   
         H         H         1.0       0.979703870224287   0.12960084279036738           0.06506843316968536          1.0000   
         H         H         1.0       0.967422465594193   0.10137803035575521           0.06674395222941598          1.0000   
         H         H         1.0       0.9821841207874584  0.15550347413454282           0.0214425921168917 1.0000   
         H         H         1.0       0.9736714265998435  0.17287696234297406           0.9457178173790383 1.0000   
         H         H         1.0       0.939005133335736   0.19695033845406867           0.04970089131116673          1.0000   
         H         H         1.0       0.9474539432015601  0.18106157535151576           0.130502654099422  1.0000   
         H         H         1.0       0.9733192655687165  0.19103309884086808           0.17212232477430245          1.0000   
         H         H         1.0       0.9822187645793784  0.2017924463713218  0.2637999486603586 1.0000   
         H         H         1.0       0.9834886871711448  0.15191688968213002           0.32734281958010447          1.0000   
         H         H         1.0       0.9783760190791778  0.1398650636063858  0.24180274823851436          1.0000   
         C         C         1.0       0.22031724728420088           0.2584986500629367 0.4822299396528311 1.0000   
         C         C         1.0       0.20825254229909626           0.2704346475190282 0.5017184989166017 1.0000   
         C         C         1.0       0.19430525539372992           0.2642537235271153 0.528366761646666  1.0000   
         C         C         1.0       0.19164326824113823           0.24736053057363475          0.5364036631319671 1.0000   
         C         C         1.0       0.20448660765591337           0.23654695130492656          0.5264952156015434 1.0000   
         C         C         1.0       0.2184373614773906  0.2420017554697889  0.49734386899226357          1.0000   
         H         H         1.0       0.2094131897464611  0.28227873317748337           0.48585461777      1.0000   
         H         H         1.0       0.18414019417377958           0.2724247431244977 0.5412661373289505 1.0000   
         H         H         1.0       0.20032943585523943           0.2236516055753396 0.5262650971754615 1.0000   
         H         H         1.0       0.22740962506463774           0.23320916508467396          0.4808610008570877 1.0000   
         C         C         1.0       0.17151212592182602           0.22056043008066112          0.47476952244327175          1.0000   
         C         C         1.0       0.16612588817567736           0.22516967716111574          0.5299519375967404 1.0000   
         C         C         1.0       0.15569332073077702           0.21348390373833723          0.5586413100999394 1.0000   
         C         C         1.0       0.1527294806715802  0.19795094234019292           0.5347662678812346 1.0000   
         C         C         1.0       0.15790766973602888           0.19405153996440333          0.4805481146545876 1.0000   
         C         C         1.0       0.16672910385124004           0.20528160527570669          0.45100601226868525          1.0000   
         C         C         1.0       0.17383356139201364           0.2417808186652289 0.5599617060603429 1.0000   
         C         C         1.0       0.15789403130890664           0.2536801874636493 0.5474237138344649 1.0000   
         C         C         1.0       0.1451396339068179  0.2558492024740249  0.5864017538749053 1.0000   
         C         C         1.0       0.12988224694756714           0.26285461230745255          0.5722775608199793 1.0000   
         C         C         1.0       0.12705460697413234           0.26767206038237257          0.5179323602965977 1.0000   
         C         C         1.0       0.1394658097955792  0.266150175589977   0.47696601236771996          1.0000   
         C         C         1.0       0.15472293841765203           0.2590974252521165 0.49201025593134384          1.0000   
         C         C         1.0       0.18451866313419296           0.22313338251223488          0.6453884240143212 1.0000   
         C         C         1.0       0.1888675020420235  0.22139706172025278           0.6998603029514268 1.0000   
         C         C         1.0       0.18544500190871038           0.2330203962202854 0.741471342118786  1.0000   
         C         C         1.0       0.179669943272542   0.24872643184949908           0.7206807195400953 1.0000   
         C         C         1.0       0.1784133206442043  0.25208651832198153           0.6628628557665932 1.0000   
         C         C         1.0       0.17907253207812865           0.2387582304489353 0.6235333068067174 1.0000   
         C         C         1.0       0.1889745142394677  0.2294324192797906  0.8062295707149544 1.0000   
         C         C         1.0       0.17013265396860233           0.17861887324955755          0.814265821121417  1.0000   
         C         C         1.0       0.18698809300921507           0.18100462345707125          0.8037438639493262 1.0000   
         C         C         1.0       0.19266552877417686           0.19695364683753488          0.8096511210024627 1.0000   
         C         C         1.0       0.18254929168294268           0.21094800372422132          0.8205866279782131 1.0000   
         C         C         1.0       0.1654164154202921  0.20693831525001302           0.8310746001748736 1.0000   
         C         C         1.0       0.15965806963487292           0.19125352095017492          0.8283038547805973 1.0000   
         C         C         1.0       0.17848297732492616           0.24098739148421622          0.8505103486400667 1.0000   
         C         C         1.0       0.1848115418368007  0.24520898242467776           0.9054165381048621 1.0000   
         C         C         1.0       0.17553577444290613           0.25456027455085634          0.9446954393544867 1.0000   
         C         C         1.0       0.15927463213802323           0.25891739695016647          0.9304331022357566 1.0000   
         C         C         1.0       0.15337923580426138           0.25640563619853246          0.8764387901332392 1.0000   
         C         C         1.0       0.16273378214275955           0.24736453126875715          0.8381884547858655 1.0000   
         C         C         1.0       0.21840911838974936           0.22567993644740408          0.8555639741433549 1.0000   
         C         C         1.0       0.23550380491936213           0.2283017036067805 0.8584670815663317 1.0000   
         C         C         1.0       0.24345035783781316           0.2411500789245728 0.8280314232500918 1.0000   
         C         C         1.0       0.23383623188983502           0.2501879576193549 0.7874625731241907 1.0000   
         C         C         1.0       0.21701508616863066           0.2464052129881622 0.7814931167219163 1.0000   
         C         C         1.0       0.20915964301627515           0.23363204006557706          0.8133945640923735 1.0000   
         H         H         1.0       0.17940175795991847           0.22832384418834686          0.44889884379123063          1.0000   
         H         H         1.0       0.15110042435544774           0.21544291496636583          0.6035635678250814 1.0000   
         H         H         1.0       0.1460471780764078  0.18841055463169162           0.5580379038185668 1.0000   
         H         H         1.0       0.17100871872206017           0.2034924662804657 0.40837647950636047          1.0000   
         H         H         1.0       0.14635050874866112           0.25020352619276176          0.6258950239875829 1.0000   
         H         H         1.0       0.12088453607326351           0.2652340076385089 0.6034906078189148 1.0000   
         H         H         1.0       0.13958234015205995           0.27060755275240184          0.4318591460626889 1.0000   
         H         H         1.0       0.16293818452636916           0.2573642493481007 0.45635505256190645          1.0000   
         H         H         1.0       0.18588971990238162           0.21155546806549097          0.615944533668825  1.0000   
         H         H         1.0       0.1942195122657861  0.21017699438467774           0.7093062168990533 1.0000   
         H         H         1.0       0.17666155466141845           0.25871172347964605          0.7494017109083874 1.0000   
         H         H         1.0       0.17402309912244124           0.26341788721888504          0.6485867773359514 1.0000   
         H         H         1.0       0.19579444373678886           0.17135435918974587          0.7925937853994294 1.0000   
         H         H         1.0       0.20551373033799694           0.19854538779538775          0.7986877938636971 1.0000   
         H         H         1.0       0.15603204533815382           0.21718122336095538          0.8311291126128899 1.0000   
         H         H         1.0       0.1460028676316079  0.18936225351791525           0.8316560001423136 1.0000   
         H         H         1.0       0.1968155476671983  0.24049224123198248           0.9164392409250486 1.0000   
         H         H         1.0       0.17954128152427903           0.25453121841904   0.9883067474962298 1.0000   
         H         H         1.0       0.14062174139830688           0.2593808831543511 0.8634257938810946 1.0000   
         H         H         1.0       0.15619951327130205           0.24440329300978422          0.7999835695196431 1.0000   
         H         H         1.0       0.2139753776748124  0.21538807433214244           0.8803958787488992 1.0000   
         H         H         1.0       0.24332011547616403           0.21953737084627592          0.8830027733737582 1.0000   
         H         H         1.0       0.2400407493536433  0.2591555078995924  0.7591908077974351 1.0000   
         H         H         1.0       0.2102764429873467  0.2542821584518338  0.7553064238186217 1.0000   
         C         C         1.0       0.14499492603438488           0.246273274664364  0.06185498692219715          1.0000   
         C         C         1.0       0.1409160830074098  0.2450688150128518  0.11884821974490478          1.0000   
         C         C         1.0       0.14036527682346403           0.22956702184445818          0.14457933954651803          1.0000   
         C         C         1.0       0.14168820862249776           0.21418485290797643          0.1144115463204256 1.0000   
         C         C         1.0       0.143086578543015   0.21550610455384914           0.05580270023014289          1.0000   
         C         C         1.0       0.14506466845597452           0.23156574377789557          0.030671967304872982         1.0000   
         H         H         1.0       0.1423572200665897  0.2566645496056765  0.14365907246981036          1.0000   
         H         H         1.0       0.13766876738177874           0.22805715003332586          0.1886757198098279 1.0000   
         H         H         1.0       0.14391920426551102           0.2050339375374844 0.028218134547231877         1.0000   
         H         H         1.0       0.14822666957494518           0.23226629959918677          0.9861592174418559 1.0000   
         C         C         1.0       0.12719780531536096           0.17809787546824213          0.07189515779457811          1.0000   
         C         C         1.0       0.1400400889019917  0.17993714956702342           0.11098472208187471          1.0000   
         C         C         1.0       0.15154974035390745           0.16620591100832835          0.1173737070347971 1.0000   
         C         C         1.0       0.1511866878743188  0.15296034792749447           0.0818434679852611 1.0000   
         C         C         1.0       0.13852963135485757           0.15204420901631696          0.04251670950238129          1.0000   
         C         C         1.0       0.12708123763347767           0.16497110056784836          0.036608103510231915         1.0000   
         C         C         1.0       0.14325230107200676           0.1963543250953617 0.1447463112323737 1.0000   
         C         C         1.0       0.1294626540775691  0.19398782858904007           0.1949416090056395 1.0000   
         C         C         1.0       0.13108569882443524           0.182228964036986  0.2403481805298242 1.0000   
         C         C         1.0       0.11913314489881534           0.18102900709197725          0.2831832795052103 1.0000   
         C         C         1.0       0.10393013757474832           0.1891578574358777 0.2759626401944806 1.0000   
         C         C         1.0       0.10116558307643884           0.19828417734284176          0.22994756372731828          1.0000   
         C         C         1.0       0.11408216598228323           0.2017805213713526 0.19115187990185833          1.0000   
         C         C         1.0       0.1754334101503629  0.20151500167842487           0.13218914778980562          1.0000   
         C         C         1.0       0.19129209363816574           0.20399575450899524          0.15288225460943683          1.0000   
         C         C         1.0       0.19510414990694416           0.20720429580985691          0.21028886349164785          1.0000   
         C         C         1.0       0.18115543535521786           0.20746746871026828          0.24599045006971826          1.0000   
         C         C         1.0       0.16494760636556016           0.2032426611963078 0.22631836260347038          1.0000   
         C         C         1.0       0.1618488993545638  0.20054601026190114           0.16907810011335878          1.0000   
         C         C         1.0       0.2135247842210052  0.21040803503566394           0.23075844375692398          1.0000   
         C         C         1.0       0.2166938922590062  0.157781885397169   0.2739449390998846 1.0000   
         C         C         1.0       0.21988384188184346           0.1624571180389614 0.2186619626814292 1.0000   
         C         C         1.0       0.22174462128609834           0.1795053383691845 0.20655915423240961          1.0000   
         C         C         1.0       0.21782051603127436           0.19152386806285504          0.24766362319603108          1.0000   
         C         C         1.0       0.21465216177077348           0.18584832582724103          0.3028550818925065 1.0000   
         C         C         1.0       0.21480862097914488           0.16961253281009103          0.31498447016014197          1.0000   
         C         C         1.0       0.2171406591975382  0.2238129695581842  0.2791183821726487 1.0000   
         C         C         1.0       0.20548672461122022           0.23757306187455757          0.28749646039850096          1.0000   
         C         C         1.0       0.20975193901270772           0.24935476787999725          0.3285079561433368 1.0000   
         C         C         1.0       0.2256151289689754  0.25041929580770694           0.35055239418686246          1.0000   
         C         C         1.0       0.23785885025426537           0.23772367295878727          0.33582570051947636          1.0000   
         C         C         1.0       0.23321901391703184           0.22459421882642774          0.3014254232466498 1.0000   
         C         C         1.0       0.23979123440785582           0.2124620658659764 0.16464952394326768          1.0000   
         C         C         1.0       0.24868929386386862           0.21801073396953705          0.11825665662599659          1.0000   
         C         C         1.0       0.24148077177691835           0.23066440988574194          0.08627990785778517          1.0000   
         C         C         1.0       0.22698772942393988           0.23902517502369913          0.10352568276350427          1.0000   
         C         C         1.0       0.21866600472687156           0.23327662759975884          0.15022062126121027          1.0000   
         C         C         1.0       0.22457969793183233           0.21944967725107745          0.18229932116368375          1.0000   
         H         H         1.0       0.11809910248850825           0.18850910415830438          0.0659468231760123 1.0000   
         H         H         1.0       0.16175528740563538           0.16656134255517205          0.14843480906863826          1.0000   
         H         H         1.0       0.1600473652967047  0.14193478336672133           0.08581470360716259          1.0000   
         H         H         1.0       0.1161595248200773  0.16295831061132576           0.009071689349345435         1.0000   
         H         H         1.0       0.14319561886191512           0.17469482049080337          0.24775915775833024          1.0000   
         H         H         1.0       0.12283498770108164           0.17546746487030082          0.32459795285888915          1.0000   
         H         H         1.0       0.08905619033902656           0.2053181598173005 0.222815294735488  1.0000   
         H         H         1.0       0.11034937201998887           0.20965676974261144          0.15496621577908343          1.0000   
         H         H         1.0       0.17337526073496257           0.19757227831401128          0.08672360404214352          1.0000   
         H         H         1.0       0.20056693964992384           0.20408551471072595          0.11934845536849936          1.0000   
         H         H         1.0       0.18183277983137633           0.20915127357227595          0.2911866241002764 1.0000   
         H         H         1.0       0.15483661812201294           0.2033942632627057 0.2540515883653103 1.0000   
         H         H         1.0       0.2212299996395415  0.15262760308929071           0.18876020565060384          1.0000   
         H         H         1.0       0.22122800268693132           0.18341143913687516          0.16456657999135166          1.0000   
         H         H         1.0       0.21106985456125163           0.19348900415718415          0.3374666225590328 1.0000   
         H         H         1.0       0.21140277648838415           0.16573231544385952          0.3548602828834896 1.0000   
         H         H         1.0       0.19313298520492592           0.23658991115878944          0.2631193182324994 1.0000   
         H         H         1.0       0.19959355314801505           0.25824882132426785          0.33939415841644416          1.0000   
         H         H         1.0       0.25084765928037495           0.23940215957779407          0.34965550863595285          1.0000   
         H         H         1.0       0.24262987189417654           0.21574318319334876          0.28772033373952044          1.0000   
         H         H         1.0       0.24483905939271738           0.20182116165793318          0.18775874922825514          1.0000   
         H         H         1.0       0.2602610260989157  0.21255308310301255           0.10506279170403565          1.0000   
         H         H         1.0       0.22144101898866086           0.24857570165540935          0.07946235085117204          1.0000   
         H         H         1.0       0.20846909972952904           0.24113703627534266          0.1674253346433512 1.0000   
         C         C         1.0       0.0958531632060089  0.08972770512938433           0.1688214425525593 1.0000   
         C         C         1.0       0.07931867299604356           0.09208276259925063          0.1651732616017532 1.0000   
         C         C         1.0       0.06900489706471791           0.08422673263226765          0.2022158648554813 1.0000   
         C         C         1.0       0.07473803219704478           0.07205165361183541          0.2423094571142956 1.0000   
         C         C         1.0       0.09203847668782994           0.06943490085573822          0.24180422531014517          1.0000   
         C         C         1.0       0.10224224626106748           0.07750181766203057          0.20450177547704754          1.0000   
         H         H         1.0       0.07304322741825464           0.10167022055297914          0.14110668748934863          1.0000   
         H         H         1.0       0.05559831398215431           0.08630423211444449          0.20094681146145235          1.0000   
         H         H         1.0       0.09561109515859623           0.06191479516413034          0.2756159098241074 1.0000   
         H         H         1.0       0.11573061378085137           0.07534166665761943          0.20571926332803278          1.0000   
         C         C         1.0       0.07580326867043152           0.08765712559500027          0.3622793196055149 1.0000   
         C         C         1.0       0.0617162941789311  0.0839376584949818  0.3292186132927094 1.0000   
         C         C         1.0       0.04988761921743401           0.09667823626385208          0.32081112668341205          1.0000   
         C         C         1.0       0.05163519703196373           0.111856481349629  0.3490715188792484 1.0000   
         C         C         1.0       0.06515597580313326           0.11458386519040237          0.38403167456931275          1.0000   
         C         C         1.0       0.07766918978414883           0.10275030306707289          0.3889527489998608 1.0000   
         C         C         1.0       0.06213758836316163           0.06707900374806042          0.2923217580294382 1.0000   
         C         C         1.0       0.06745059422555699           0.050482949046456005         0.3276332196585115 1.0000   
         C         C         1.0       0.06490603160441699           0.05019474504322141          0.38447307381099677          1.0000   
         C         C         1.0       0.06811949995897537           0.0359563404620904 0.41613395584743307          1.0000   
         C         C         1.0       0.0725293445158155  0.021634320411293873         0.39041727736598747          1.0000   
         C         C         1.0       0.07428002404009426           0.021567844935389546         0.33133587572769285          1.0000   
         C         C         1.0       0.07148555097103237           0.03621292061164061          0.3006639243011767 1.0000   
         C         C         1.0       0.04053570243719595           0.05535476976668385          0.2178253118566138 1.0000   
         C         C         1.0       0.0251314539887193  0.04723728382938508           0.2053778035340184 1.0000   
         C         C         1.0       0.013007643977413608          0.04405352868711443          0.2445679626840445 1.0000   
         C         C         1.0       0.015920015054122105          0.050562933690621925         0.2991562052855702 1.0000   
         C         C         1.0       0.0302300494735388  0.05870902781561904           0.311217722008518  1.0000   
         C         C         1.0       0.04340988067984464           0.06113237794595472          0.27150956209628063          1.0000   
         C         C         1.0       0.9957727680176778  0.03484749810152743           0.2268784439627545 1.0000   
         C         C         1.0       0.9578358941396315  0.07200138694823477           0.1871469961917468 1.0000   
         C         C         1.0       0.9693979985508774  0.06744763302283263           0.14644074004432578          1.0000   
         C         C         1.0       0.9834877186915559  0.056940184212526335         0.1574800680663862 1.0000   
         C         C         1.0       0.9841030019930769  0.04989436461411478           0.21210173105729707          1.0000   
         C         C         1.0       0.9742108739253607  0.05668738784601701           0.25441898112068373          1.0000   
         C         C         1.0       0.9613829234407231  0.06791386765432428           0.24181087899938677          1.0000   
         C         C         1.0       0.9899912414321331  0.02138447610548111           0.27711415226855085          1.0000   
         C         C         1.0       0.0022466245317616096         0.012973968199815777         0.3064030332730895 1.0000   
         C         C         1.0       0.998414365870288   0.002254877986565873         0.35148419951526877          1.0000   
         C         C         1.0       0.9816854813011983  0.00013999303041001276       0.36861458141105996          1.0000   
         C         C         1.0       0.9699321113123637  0.008934344348386247         0.3382742716530263 1.0000   
         C         C         1.0       0.9738136339131052  0.018788587576497262         0.29203308370149006          1.0000   
         C         C         1.0       0.9813777422735773  0.01604052929267663           0.15214592649357894          1.0000   
         C         C         1.0       0.9817713347692916  0.0032072325489020947        0.1123742122577196 1.0000   
         C         C         1.0       0.9963708965564659  0.9951086599348828  0.0989683826822445 1.0000   
         C         C         1.0       0.010568609717577226          0.9989184474093152 0.12873167211708658          1.0000   
         C         C         1.0       0.011029906869845618          0.011670131726005728         0.16880350963790927          1.0000   
         C         C         1.0       0.9964862165941232  0.020930531839443267         0.18034801711497486          1.0000   
         H         H         1.0       0.08621966570749517           0.07869704897093643          0.3617152936020045 1.0000   
         H         H         1.0       0.03949759027913413           0.09537940760926333          0.2921916951760561 1.0000   
         H         H         1.0       0.040884987848822885          0.12054425579922372          0.34030908537065496          1.0000   
         H         H         1.0       0.0886085379286019  0.10488090518024751           0.4130894522337475 1.0000   
         H         H         1.0       0.058718406189739225          0.06051969940818469          0.40332130559747403          1.0000   
         H         H         1.0       0.06411520115194036           0.037290198512685224         0.4600513633294235 1.0000   
         H         H         1.0       0.07674626630386183           0.009128429923008108         0.3108654029039619 1.0000   
         H         H         1.0       0.07285492491636059           0.03601096015486194          0.2565019947748838 1.0000   
         H         H         1.0       0.050809401502420304          0.05516316285309819          0.18614267888579616          1.0000   
         H         H         1.0       0.022999306294756883          0.042025994327072214         0.16274626974930506          1.0000   
         H         H         1.0       0.0067974642768562354         0.04894926837614766          0.333151408730736  1.0000   
         H         H         1.0       0.0322922974385742  0.06160230662484478           0.35440124763077857          1.0000   
         H         H         1.0       0.9682054252661612  0.07153702404417905           0.10363208776687105          1.0000   
         H         H         1.0       0.9910490548569422  0.05184576413378261           0.12310109351973475          1.0000   
         H         H         1.0       0.9764193335590763  0.052411195737327665         0.2965612668003218 1.0000   
         H         H         1.0       0.9548826252962511  0.07421713319592649           0.27729152390447015          1.0000   
         H         H         1.0       0.015407375052614247          0.015090437222472941         0.29220481557532846          1.0000   
         H         H         1.0       0.007740507977248345          0.9946773988675467 0.371141436798875  1.0000   
         H         H         1.0       0.9576548408276898  0.009167761802212793         0.3519288473371532 1.0000   
         H         H         1.0       0.9637451489974396  0.023451590334358174         0.2676309058177371 1.0000   
         H         H         1.0       0.9690972907836466  0.021973731016506015         0.16283174554279412          1.0000   
         H         H         1.0       0.9700864905585221  9.29374652005599e-05         0.0863413883181885 1.0000   
         H         H         1.0       0.02164729430286383           0.9921968891726248 0.11639052830244423          1.0000   
         H         H         1.0       0.022834039041522036          0.01463576632232555          0.19487562337849051          1.0000   
         C         C         1.0       0.10286632806414975           0.9897345522351194 0.9546088785391122 1.0000   
         C         C         1.0       0.10220922851188652           0.9994949767772565 0.9086777608010292 1.0000   
         C         C         1.0       0.0879359138355209  0.008754537899875237         0.8927375129563786 1.0000   
         C         C         1.0       0.0737896389977617  0.00789879783239833           0.9266763254997533 1.0000   
         C         C         1.0       0.07429727433956868           0.9973419771556707 0.9741130464515673 1.0000   
         C         C         1.0       0.08892023425617257           0.9889692752862383 0.9897989865084694 1.0000   
         H         H         1.0       0.11396628375612172           0.999646101013762  0.8843134774450897 1.0000   
         H         H         1.0       0.09013773004220349           0.01814688689777655          0.8610090339651966 1.0000   
         H         H         1.0       0.06348830648619663           0.9955741555339259 0.00017618323177170936       1.0000   
         H         H         1.0       0.09055716308570494           0.982411651332951  0.030027385407707996         1.0000   
         C         C         1.0       0.060301415565448435          0.03903008192343749          0.0034908286836621283        1.0000   
         C         C         1.0       0.06405278936081027           0.03554461426504063          0.9472416269588397 1.0000   
         C         C         1.0       0.07320097038048434           0.04778491487110759          0.9170430362121529 1.0000   
         C         C         1.0       0.07699347099322051           0.06275384385898608          0.9391289082558769 1.0000   
         C         C         1.0       0.073008385238299   0.06603506330427278           0.9938418004884402 1.0000   
         C         C         1.0       0.06428014395578296           0.05442948571555983          0.02577496338717289          1.0000   
         C         C         1.0       0.05779239262986491           0.01915225953622035          0.9151081214648865 1.0000   
         C         C         1.0       0.040102212212897115          0.0115198736713229 0.934558872792687  1.0000   
         C         C         1.0       0.025968386026310908          0.020723239497035806         0.9504651578153277 1.0000   
         C         C         1.0       0.0105040693827394  0.013346214656946742         0.9639023929738821 1.0000   
         C         C         1.0       0.009245838320380173          0.9962178149109084 0.9653753562681743 1.0000   
         C         C         1.0       0.022160142618051992          0.9866846242677713 0.9406449760139232 1.0000   
         C         C         1.0       0.03743149834108461           0.9946530861316498 0.9262264042394356 1.0000   
         C         C         1.0       0.05620539306813921           0.01108113747614059          0.8089832342708295 1.0000   
         C         C         1.0       0.05269886350270081           0.014275076364344885         0.75316951930392   1.0000   
         C         C         1.0       0.045383688953364754          0.029446364407240244         0.7391578374051136 1.0000   
         C         C         1.0       0.04124587145452452           0.04091364316895585          0.7804362748851682 1.0000   
         C         C         1.0       0.044864932669352875          0.03749253938893515          0.8343618896739721 1.0000   
         C         C         1.0       0.0531818000727855  0.022638428005539835         0.8512422523207358 1.0000   
         C         C         1.0       0.04224647512802027           0.03410589307211476          0.6740206359429194 1.0000   
         C         C         1.0       0.053589000717227275          0.08853254033129465          0.6464536213985059 1.0000   
         C         C         1.0       0.040012118652362094          0.08128927288325061          0.6219349199075012 1.0000   
         C         C         1.0       0.036919230232618894          0.06394553524028157          0.624740841594396  1.0000   
         C         C         1.0       0.04701423098938662           0.053767197762200514         0.6582009055324117 1.0000   
         C         C         1.0       0.06191010170396338           0.060859117419323594         0.6769749253178639 1.0000   
         C         C         1.0       0.0649817059478528  0.07821024557982303           0.6753620912120182 1.0000   
         C         C         1.0       0.022720323242411355          0.028926743907326413         0.6743769642823979 1.0000   
         C         C         1.0       0.01822422570325055           0.011729842477982144         0.6695100072614426 1.0000   
         C         C         1.0       0.001631069844761468          0.006479801576672273         0.6560654455751086 1.0000   
         C         C         1.0       0.9894770985701394  0.01778585078846895           0.653089430541975  1.0000   
         C         C         1.0       0.9924889395691029  0.03458860229987559           0.6667243596042539 1.0000   
         C         C         1.0       0.009397747218521157          0.03957767771855769          0.6791610366378608 1.0000   
         C         C         1.0       0.07002738019092325           0.02050926172893619          0.632487032568769  1.0000   
         C         C         1.0       0.0779010933112283  0.012709709204071551         0.5869681436478256 1.0000   
         C         C         1.0       0.06974564331385746           0.011800888764169182         0.5350523666727315 1.0000   
         C         C         1.0       0.05280618706640938           0.014677577252401042         0.5340430684836016 1.0000   
         C         C         1.0       0.04467467100284517           0.022379790169622327         0.5776362959991711 1.0000   
         C         C         1.0       0.05313860739671439           0.025155482082364955         0.6283174386792201 1.0000   
         H         H         1.0       0.054263859737901265          0.02986329494971418          0.033580065741265486         1.0000   
         H         H         1.0       0.07682090457788648           0.04507331526498115          0.8740068720319608 1.0000   
         H         H         1.0       0.08650724787983832           0.07065854727957199          0.9178786022426273 1.0000   
         H         H         1.0       0.061864422063601765          0.057913608959159646         0.06823520149016193          1.0000   
         H         H         1.0       0.027612030134183785          0.03452918014048101          0.9489146145060473 1.0000   
         H         H         1.0       0.9992960698007008  0.019852767677880134         0.9741937801979036 1.0000   
         H         H         1.0       0.021501646486285164          0.9728328204675077 0.9475547554366889 1.0000   
         H         H         1.0       0.04863257281910838           0.9881543029197646 0.9112534896912852 1.0000   
         H         H         1.0       0.06219699052298755           0.9997555126496862 0.8203178118219443 1.0000   
         H         H         1.0       0.05604183868873247           0.004388498714778866         0.7217853097998406 1.0000   
         H         H         1.0       0.034889123040080294          0.05298568601757303          0.7684545775036286 1.0000   
         H         H         1.0       0.04092883813521331           0.04701060792609879          0.86567458085028   1.0000   
         H         H         1.0       0.03096296112986363           0.08938820488728028          0.6012077714331344 1.0000   
         H         H         1.0       0.025125168723369118          0.059767905119301856         0.6040660202170841 1.0000   
         H         H         1.0       0.07064782115588653           0.05355573028684457          0.7005340085258207 1.0000   
         H         H         1.0       0.07642329431569461           0.08248912961729316          0.6960721962669352 1.0000   
         H         H         1.0       0.027652819851884614          0.0026325045477082476        0.6703429813625905 1.0000   
         H         H         1.0       0.9992961563860282  0.9927497521128734  0.6516712717359041 1.0000   
         H         H         1.0       0.9823911287675473  0.04417928879500921           0.6643762824199034 1.0000   
         H         H         1.0       0.012307226722541698          0.052497498077118676         0.6943420832211115 1.0000   
         H         H         1.0       0.07658141433926136           0.02078649785991371          0.6691457136689037 1.0000   
         H         H         1.0       0.09110403673338241           0.011116599621272982         0.5924264633130977 1.0000   
         H         H         1.0       0.04558988326410773           0.012975628768257419         0.49605690056874396          1.0000   
         H         H         1.0       0.03181724706119171           0.02753537823817287          0.5712160954946758 1.0000   
         C         C         1.0       0.1174595918444444  0.06076549228909989           0.46593207284716553          1.0000   
         C         C         1.0       0.11446260566913188           0.06249114937290168          0.4083877219085357 1.0000   
         C         C         1.0       0.12310862041208616           0.07448742079217996          0.37585289857733517          1.0000   
         C         C         1.0       0.1350599820646863  0.08519862021364122           0.4015429356040929 1.0000   
         C         C         1.0       0.1395203725013783  0.08103608312114252           0.4577772019677782 1.0000   
         C         C         1.0       0.1317215475256851  0.06888855847606679           0.48833779937546185          1.0000   
         H         H         1.0       0.10652519384342084           0.05402628668345355          0.38192676594699465          1.0000   
         H         H         1.0       0.12122176180705486           0.07458265055749735          0.33255261758845767          1.0000   
         H         H         1.0       0.1511805010858237  0.086335016448434   0.47255538158460997          1.0000   
         H         H         1.0       0.13647373849438213           0.06610665342063493          0.5291853609987833 1.0000   
         C         C         1.0       0.14260015418148603           0.12078229169666277          0.44326069836174775          1.0000   
         C         C         1.0       0.15156956889736936           0.11439503808831852          0.39978562328668915          1.0000   
         C         C         1.0       0.16688459933369518           0.12288980580526676          0.3862055852204085 1.0000   
         C         C         1.0       0.17237573934808406           0.13650892090200425          0.41667608381778615          1.0000   
         C         C         1.0       0.16167153544436472           0.14408296301707477          0.4530903730555632 1.0000   
         C         C         1.0       0.14717125711501147           0.13557164190139148          0.469471795759564  1.0000   
         C         C         1.0       0.1460534236983757  0.09770174836131251           0.3661508833681005 1.0000   
         C         C         1.0       0.13675633201132636           0.10693438751949258          0.3160888132481812 1.0000   
         C         C         1.0       0.14538473196320426           0.11147419234698375          0.26677429593341273          1.0000   
         C         C         1.0       0.13644198074130603           0.11639193620184018          0.21898011555463573          1.0000   
         C         C         1.0       0.11962559173901714           0.11916052484344108          0.22022642105316714          1.0000   
         C         C         1.0       0.11101247798798097           0.1175000801925925 0.27283343723220516          1.0000   
         C         C         1.0       0.12000018147092312           0.11127580581341179          0.31906865881052926          1.0000   
         C         C         1.0       0.1749308888131977  0.08146012380008605           0.3857653239431839 1.0000   
         C         C         1.0       0.18806895151750117           0.07084526100610056          0.3677057132254844 1.0000   
         C         C         1.0       0.18874210231381225           0.0641833804740628 0.31263276272925644          1.0000   
         C         C         1.0       0.1748450839717192  0.06746368739984443           0.2779689180564262 1.0000   
         C         C         1.0       0.16225856380147366           0.07699428583322931          0.2969356749483879 1.0000   
         C         C         1.0       0.16182321247004458           0.08510702079306531          0.348996173971797  1.0000   
         C         C         1.0       0.2067508456661703  0.05747207823185341           0.29344096257174684          1.0000   
         C         C         1.0       0.22608214027356005           0.10944090866025792          0.27531541143875055          1.0000   
         C         C         1.0       0.22966728725045182           0.10065575980473529          0.32383909051194565          1.0000   
         C         C         1.0       0.22585622631344335           0.08367635032811105          0.3265502387028325 1.0000   
         C         C         1.0       0.21624826660302743           0.07532495179239507          0.28778792173234774          1.0000   
         C         C         1.0       0.21129439710151823           0.08543433818983548          0.24100587997087541          1.0000   
         C         C         1.0       0.21714200879642792           0.10180644294163432          0.23333367430732194          1.0000   
         C         C         1.0       0.20836280356818881           0.046231984570100915         0.23656845811683602          1.0000   
         C         C         1.0       0.19495239839745096           0.03738301979552272          0.21133125970114278          1.0000   
         C         C         1.0       0.19754271091048403           0.02809682340986064          0.1624128473711388 1.0000   
         C         C         1.0       0.21308516721085471           0.027800786753056528         0.13758285664965597          1.0000   
         C         C         1.0       0.22615423656568942           0.03667024212505421          0.16003534752679816          1.0000   
         C         C         1.0       0.22415328736278617           0.04671417198243666          0.2060461717964055 1.0000   
         C         C         1.0       0.23074246689635292           0.040958847134816345         0.3413742958623697 1.0000   
         C         C         1.0       0.2374883772227363  0.028677442950879595         0.37477037591596435          1.0000   
         C         C         1.0       0.22661536648224245           0.019207894298089556         0.40703845693432233          1.0000   
         C         C         1.0       0.20932022575551767           0.021638873954430426         0.4048339228787431 1.0000   
         C         C         1.0       0.2038283939086821  0.03421570588039291           0.3682914779720848 1.0000   
         C         C         1.0       0.21420217039619885           0.04505224914915584          0.337975184318153  1.0000   
         H         H         1.0       0.13041549935868588           0.11606912090504173          0.45560408935834534          1.0000   
         H         H         1.0       0.17642757410206583           0.11734115749403462          0.35751022185107084          1.0000   
         H         H         1.0       0.18313786332795146           0.14423113447319053          0.4048671102623708 1.0000   
         H         H         1.0       0.137836493947355   0.14063526012639738           0.49698751781251654          1.0000   
         H         H         1.0       0.15841459012687642           0.1081264991878772 0.26371249803174257          1.0000   
         H         H         1.0       0.14363050385659729           0.11705236058744162          0.18252240038353815          1.0000   
         H         H         1.0       0.097165090403041   0.11759627585133003           0.2700119353595976 1.0000   
         H         H         1.0       0.11343379773716429           0.1094530792555739 0.35703932799515886          1.0000   
         H         H         1.0       0.17625319789960964           0.08563705679229261          0.42909806610585843          1.0000   
         H         H         1.0       0.19794713853011772           0.06887653572540375          0.39937604042334895          1.0000   
         H         H         1.0       0.17423765276219008           0.06354950053783681          0.23611120808421643          1.0000   
         H         H         1.0       0.15281702060586497           0.0792856803394395 0.2653123584476492 1.0000   
         H         H         1.0       0.2381691218022811  0.1059752025162366  0.35756444258984504          1.0000   
         H         H         1.0       0.2301034003505942  0.07718922369552206           0.36467207343819563          1.0000   
         H         H         1.0       0.20238418505961298           0.08079656313000405          0.21005072100724007          1.0000   
         H         H         1.0       0.21345032303804123           0.10894500580363276          0.19771903763544021          1.0000   
         H         H         1.0       0.18297829947073563           0.03570290177878355          0.2333501509902145 1.0000   
         H         H         1.0       0.18690506842159607           0.020485067577205918         0.14471592658687005          1.0000   
         H         H         1.0       0.23703090126317536           0.03921799164081108          0.1321454391579624 1.0000   
         H         H         1.0       0.23402258717530972           0.053533919558908405         0.22858253310838128          1.0000   
         H         H         1.0       0.2392861342846434  0.04803599062730801           0.31459655977076934          1.0000   
         H         H         1.0       0.25059032396314235           0.02543504785322459          0.37679520313688697          1.0000   
         H         H         1.0       0.19956604340410042           0.015313035276942166         0.4294953375721713 1.0000   
         H         H         1.0       0.19027941517955277           0.034642802217139  0.3634685031406812 1.0000   
         C         C         1.0       0.2053334744214457  0.03795416518045047           0.9980234285754213 1.0000   
         C         C         1.0       0.19580526548512814           0.04952586749003651          0.027924407669374762         1.0000   
         C         C         1.0       0.18177968478325263           0.05590567370822974          0.006350089309079987         1.0000   
         C         C         1.0       0.17710272456990608           0.051933139792067484         0.9507183368355054 1.0000   
         C         C         1.0       0.18681580848656776           0.040995833386494596         0.9185189171524982 1.0000   
         C         C         1.0       0.20126702680533212           0.033950079542423905         0.9433277572992801 1.0000   
         H         H         1.0       0.19879932353584762           0.05305182806461062          0.07137730488453164          1.0000   
         H         H         1.0       0.17461380185328543           0.06546654921939754          0.03454338865232831          1.0000   
         H         H         1.0       0.18292202869894547           0.03690391622797695          0.8766485147061678 1.0000   
         H         H         1.0       0.20711405139421277           0.025181385848331184         0.9161659087656796 1.0000   
         C         C         1.0       0.16246629907855342           0.08809134539274366          0.9599276630748886 1.0000   
         C         C         1.0       0.15156143721555526           0.07464463958743539          0.9575633360374772 1.0000   
         C         C         1.0       0.13461703487705676           0.07712006025152829          0.9699662166413441 1.0000   
         C         C         1.0       0.12870281618554363           0.09217430822334682          0.9929860866704608 1.0000   
         C         C         1.0       0.14050355100697945           0.10491500102003348          0.000301296323343081         1.0000   
         C         C         1.0       0.1568173098221823  0.1029545467091606  0.9823910753514467 1.0000   
         C         C         1.0       0.1582247559559469  0.05744847530171637           0.9315255654737457 1.0000   
         C         C         1.0       0.1488218064946235  0.03999028192324183           0.9494600749926905 1.0000   
         C         C         1.0       0.15099212962876865           0.025258993003022923         0.9178584339416512 1.0000   
         C         C         1.0       0.1446026587004904  0.010889745421538422         0.938827662356023  1.0000   
         C         C         1.0       0.1365328382919281  0.009597455007194666         0.9917803144679578 1.0000   
         C         C         1.0       0.13482765252897    0.024502392540153295         0.021300887459384965         1.0000   
         C         C         1.0       0.14246943294756523           0.03885570280828832          0.0026539259523654657        1.0000   
         C         C         1.0       0.13993992361155802           0.06167664416851304          0.8442116891148492 1.0000   
         C         C         1.0       0.13610643803706818           0.06993753488312104          0.7946482728120177 1.0000   
         C         C         1.0       0.14855479540238725           0.07696672367003221          0.760280783370605  1.0000   
         C         C         1.0       0.16471390626772184           0.07668002819368636          0.782429911738507  1.0000   
         C         C         1.0       0.16910653929478583           0.06940441392656194          0.8342837764634499 1.0000   
         C         C         1.0       0.15578473337058474           0.062383234264790755         0.8668748018245883 1.0000   
         C         C         1.0       0.14481995499470288           0.08440068381054688          0.6968669671749483 1.0000   
         C         C         1.0       0.15115554231881023           0.13970635703468282          0.7308810534811262 1.0000   
         C         C         1.0       0.13661237575442206           0.13173477561153835          0.7427137062407173 1.0000   
         C         C         1.0       0.134577555616781   0.11458075795173861           0.7320241023805597 1.0000   
         C         C         1.0       0.14738284192914144           0.10462733058489393          0.7085935205930096 1.0000   
         C         C         1.0       0.1628080823481753  0.11318280866712138           0.6990340854514243 1.0000   
         C         C         1.0       0.16507979166310732           0.13038588318708055          0.7113962227520408 1.0000   
         C         C         1.0       0.12786208573407928           0.07859683419967323          0.6656193420442682 1.0000   
         C         C         1.0       0.12203100852649564           0.062186067928515776         0.6687748547558445 1.0000   
         C         C         1.0       0.11082117518438718           0.05564395358920571          0.6311007754977301 1.0000   
         C         C         1.0       0.10317456194832109           0.06590202206267581          0.5934142607491175 1.0000   
         C         C         1.0       0.10691072777746807           0.08317266586078897          0.5944873000957926 1.0000   
         C         C         1.0       0.1204414817687716  0.0890403757761069  0.6256470608388539 1.0000   
         C         C         1.0       0.16158829839168276           0.08479240745538918          0.6002288554013593 1.0000   
         C         C         1.0       0.17213855044557433           0.07683004152126682          0.5604225945535266 1.0000   
         C         C         1.0       0.17842511219178692           0.060781766532427506         0.5684678865952504 1.0000   
         C         C         1.0       0.17272393798912578           0.05222070561351755          0.6147784038423522 1.0000   
         C         C         1.0       0.16214668994844172           0.0593959359065559 0.6559387147631229 1.0000   
         C         C         1.0       0.15678203817389558           0.07604897720128445          0.6498224188528511 1.0000   
         H         H         1.0       0.1757116075639217  0.08830488191395536           0.9446138590637472 1.0000   
         H         H         1.0       0.12597077786997188           0.06765798537539203          0.9614442031612801 1.0000   
         H         H         1.0       0.11579885258772868           0.09375000353119978          0.004777164306935422         1.0000   
         H         H         1.0       0.16658959365251014           0.11221854800273645          0.993326051142849  1.0000   
         H         H         1.0       0.15733044013000985           0.026073028546541588         0.8777692248175494 1.0000   
         H         H         1.0       0.14711119797459882           0.9991326275543094 0.91244080571677   1.0000   
         H         H         1.0       0.12999706113553075           0.024814256534982482         0.06153606625435626          1.0000   
         H         H         1.0       0.1419123011255058  0.050150832746050034         0.028488251141090215         1.0000   
         H         H         1.0       0.12946556001952447           0.05507694979351618          0.8664686120362289 1.0000   
         H         H         1.0       0.12247307004825599           0.07132632091848246          0.7839235685304535 1.0000   
         H         H         1.0       0.1762215220555326  0.0810765850509132  0.7619803163286439 1.0000   
         H         H         1.0       0.18154648607517834           0.07211852358542648          0.8503764112030847 1.0000   
         H         H         1.0       0.12576753681761463           0.13777780763346748          0.7634042360377526 1.0000   
         H         H         1.0       0.12294251525975912           0.10902988468772934          0.7389898099998915 1.0000   
         H         H         1.0       0.17342967160963932           0.10613946065904467          0.6849778259716095 1.0000   
         H         H         1.0       0.17709601961476842           0.13577616626150207          0.7048882722961721 1.0000   
         H         H         1.0       0.12549537024605675           0.05312328322923343          0.698220086831297  1.0000   
         H         H         1.0       0.10898093064343464           0.042094532787759764         0.6321751669993058 1.0000   
         H         H         1.0       0.10118328662100494           0.09189903492980411          0.5638926344644457 1.0000   
         H         H         1.0       0.1238754797290294  0.10135498529399145           0.6195878443127188 1.0000   
         H         H         1.0       0.15751771404585282           0.09780048094592297          0.5928173740790349 1.0000   
         H         H         1.0       0.17601156900619458           0.0842679256857195 0.5266008260263905 1.0000   
         H         H         1.0       0.17649564291558126           0.03988378196866438          0.6231433427334784 1.0000   
         H         H         1.0       0.15707739432406473           0.0519471586740905 0.6914028616855653 1.0000   
         C         C         1.0       0.6109367027444225  0.17562265474541744           0.6853834172231463 1.0000   
         C         C         1.0       0.6272554299593937  0.18145154588619467           0.6819828241975927 1.0000   
         C         C         1.0       0.6391282398158785  0.17284997224579352           0.6503050827593899 1.0000   
         C         C         1.0       0.6355145043812447  0.15705360203356614           0.6270387923770518 1.0000   
         C         C         1.0       0.6185595755851979  0.15175157280642354           0.6312687288916863 1.0000   
         C         C         1.0       0.6064228664001814  0.1601882455106996  0.6617888676285189 1.0000   
         H         H         1.0       0.6302196486393248  0.19328084934633671           0.6994659901959382 1.0000   
         H         H         1.0       0.6514308586376839  0.17803337977321732           0.6512056386673349 1.0000   
         H         H         1.0       0.6149530046112018  0.14091606815046143           0.6069747321612019 1.0000   
         H         H         1.0       0.594202448225323   0.1546136040580163  0.6652617728430805 1.0000   
         C         C         1.0       0.6435855380314656  0.11995268784873256           0.6582345250150413 1.0000   
         C         C         1.0       0.647933907702677   0.12669264865843954           0.6067478823165403 1.0000   
         C         C         1.0       0.6511239920811631  0.11536850225903275           0.5635948187006589 1.0000   
         C         C         1.0       0.6508171432201251  0.09859296064737033           0.573562209183497  1.0000   
         C         C         1.0       0.6474348977624473  0.09234847873027485           0.6252289170006144 1.0000   
         C         C         1.0       0.6441734211742298  0.1027410605028991  0.6680418078463003 1.0000   
         C         C         1.0       0.6491669459285959  0.1466699274924343  0.5974602880672018 1.0000   
         C         C         1.0       0.6681750016311586  0.1491759267962626  0.6197603949554631 1.0000   
         C         C         1.0       0.6814370969494139  0.14664095376083766           0.5824027647304777 1.0000   
         C         C         1.0       0.6974692005449376  0.14531876964756407           0.6008291195980128 1.0000   
         C         C         1.0       0.7009065626493499  0.14590728524864935           0.6576501531476658 1.0000   
         C         C         1.0       0.6889568000842917  0.15056059244673725           0.6951856351936514 1.0000   
         C         C         1.0       0.6725336010542374  0.15127460222993086           0.676031116398674  1.0000   
         C         C         1.0       0.6349305884263988  0.14600299920506654           0.4990481600072446 1.0000   
         C         C         1.0       0.6363815857373599  0.14866961310815516           0.4401771671349397 1.0000   
         C         C         1.0       0.6483130005851985  0.15988767932039039           0.41937343808735705          1.0000   
         C         C         1.0       0.6541162605155868  0.1720211202609262  0.45722310069565136          1.0000   
         C         C         1.0       0.6541595102280853  0.16835576700841778           0.5134385207573268 1.0000   
         C         C         1.0       0.6459911379704951  0.15400180030832594           0.5358996756264155 1.0000   
         C         C         1.0       0.6563778945311691  0.15573495861374986           0.35640681959919296          1.0000   
         C         C         1.0       0.6712176993013672  0.10226995966603769           0.35155321111485816          1.0000   
         C         C         1.0       0.6680080153833884  0.11103286426492577           0.30089254375606667          1.0000   
         C         C         1.0       0.6632487517908334  0.12812521263131382           0.30339440643295357          1.0000   
         C         C         1.0       0.6629328552409738  0.13620582331784825           0.3538164889444955 1.0000   
         C         C         1.0       0.6690458630434544  0.1281085141695761  0.40074092428765373          1.0000   
         C         C         1.0       0.6730723786422845  0.11138006725886376           0.4000671344505373 1.0000   
         C         C         1.0       0.6739019523924777  0.1647980349700822  0.3444366055953872 1.0000   
         C         C         1.0       0.6856955427829304  0.16651107791917477           0.3870874697740252 1.0000   
         C         C         1.0       0.7006503763728701  0.17513386136141734           0.37748803408799164          1.0000   
         C         C         1.0       0.7047697582021963  0.18037328268348696           0.3243667772539513 1.0000   
         C         C         1.0       0.6938214810573481  0.17729995268616341           0.28149140499466585          1.0000   
         C         C         1.0       0.6786570760738856  0.169012527119008   0.2898069621155315 1.0000   
         C         C         1.0       0.6395805864001458  0.17766968658313073           0.294923451236316  1.0000   
         C         C         1.0       0.628640749114471   0.18181371841195634           0.25281793526987045          1.0000   
         C         C         1.0       0.6169105957665998  0.16989316662879728           0.23329107375226302          1.0000   
         C         C         1.0       0.615576927124401   0.15480384173402986           0.2611353938032416 1.0000   
         C         C         1.0       0.628259566359971   0.15001877396929827           0.29834850339337676          1.0000   
         C         C         1.0       0.6412380093053741  0.16147676297596844           0.3152924722829473 1.0000   
         H         H         1.0       0.6415864499444307  0.12889979199091764           0.6923500689515858 1.0000   
         H         H         1.0       0.6561548312867758  0.12013631853218872           0.5240873453502748 1.0000   
         H         H         1.0       0.6532636698699694  0.09044764124459803           0.5399753256149163 1.0000   
         H         H         1.0       0.6422450364234614  0.09764895012337371           0.7106300987684464 1.0000   
         H         H         1.0       0.678101578841551   0.14461040262346553           0.5392817333922486 1.0000   
         H         H         1.0       0.7069187276439333  0.1429566453940479  0.5694112748345559 1.0000   
         H         H         1.0       0.6917533159283479  0.15317231553977542           0.7386550935031687 1.0000   
         H         H         1.0       0.6625259267645258  0.1522613030122357  0.7067317276869395 1.0000   
         H         H         1.0       0.6258253599581813  0.13634841121792876           0.5162737855932518 1.0000   
         H         H         1.0       0.6308685150735863  0.13931383963095004           0.41706045340124653          1.0000   
         H         H         1.0       0.6621323637511978  0.18251944017148067           0.4413033130688407 1.0000   
         H         H         1.0       0.6623891885876787  0.17459445443039384           0.5405814836457553 1.0000   
         H         H         1.0       0.6690576384002384  0.10439591617444653           0.26215506531280725          1.0000   
         H         H         1.0       0.6597385645054488  0.13425380421916513           0.2647386693351132 1.0000   
         H         H         1.0       0.6709666151299074  0.13414812651077665           0.4395238893385079 1.0000   
         H         H         1.0       0.6775526818209314  0.10490332362422983           0.4394729151409526 1.0000   
         H         H         1.0       0.6846686263064794  0.16117569365844114           0.428855674203609  1.0000   
         H         H         1.0       0.7102704830522599  0.1753047655730091  0.4102398394764109 1.0000   
         H         H         1.0       0.6953293124699398  0.18315200177431937           0.2414542224893511 1.0000   
         H         H         1.0       0.6714595835800259  0.16523864272853983           0.2529294111911944 1.0000   
         H         H         1.0       0.6489258524559588  0.18673515539629457           0.31069783153757263          1.0000   
         H         H         1.0       0.6289334578022326  0.19366641772582313           0.2323708457732798 1.0000   
         H         H         1.0       0.6056376829477652  0.14692835010847582           0.2464205097324229 1.0000   
         H         H         1.0       0.6263171628263046  0.13775237858979042           0.31768975343875655          1.0000   
         C         C         1.0       0.6183917473078973  0.10922845952900051           0.854936047369568  1.0000   
         C         C         1.0       0.6342514053712515  0.11549541207919325           0.8592128607235224 1.0000   
         C         C         1.0       0.6399531404472114  0.11882741896745569           0.9125302734928988 1.0000   
         C         C         1.0       0.6322477951241485  0.11299799235500294           0.9612516456470805 1.0000   
         C         C         1.0       0.6164551132128956  0.10625218139522974           0.9562144333249533 1.0000   
         C         C         1.0       0.609836817266584   0.10380388198670776           0.9033924359975467 1.0000   
         H         H         1.0       0.6406757363583103  0.12056762121308856           0.8205394337703886 1.0000   
         H         H         1.0       0.6514251497664749  0.12540101196019265           0.9136023224690734 1.0000   
         H         H         1.0       0.6098244876118352  0.10275086259293764           0.9932353632128554 1.0000   
         H         H         1.0       0.5978747997786581  0.09693189752191333           0.8997969132110478 1.0000   
         C         C         1.0       0.6489205028212893  0.09654626686365742           0.10999159243014467          1.0000   
         C         C         1.0       0.6423843797643608  0.09705636496205083           0.05576153216665514          1.0000   
         C         C         1.0       0.6371603154765313  0.08137533715637635           0.03526228341380322          1.0000   
         C         C         1.0       0.6385165144780862  0.06694003862385212           0.06724496710259054          1.0000   
         C         C         1.0       0.6443973059874849  0.06783558366606912           0.12269291270236504          1.0000   
         C         C         1.0       0.6482296734036709  0.08288775419198768           0.14490542086774338          1.0000   
         C         C         1.0       0.6430362702740257  0.11333707159857    0.018788596837670868         1.0000   
         C         C         1.0       0.6356022359842535  0.12907310392965543           0.051566745882953846         1.0000   
         C         C         1.0       0.6225710454256059  0.12749110378702355           0.08905654260412699          1.0000   
         C         C         1.0       0.6155141874921533  0.14036075931479375           0.11592178989222832          1.0000   
         C         C         1.0       0.6212542673445307  0.15649010328468368           0.10121770016485351          1.0000   
         C         C         1.0       0.6329851534391007  0.1580928086033281  0.05968655748053808          1.0000   
         C         C         1.0       0.6400288194646564  0.1448948096116876  0.033762902528026384         1.0000   
         C         C         1.0       0.6697797927351749  0.0999806326196433  0.9720875744165245 1.0000   
         C         C         1.0       0.686442704968024   0.0998706867647905  0.9556481223326863 1.0000   
         C         C         1.0       0.6968738878083707  0.11313969752641596           0.9686328697005868 1.0000   
         C         C         1.0       0.6914553997070503  0.12491233604724684           0.007621155192549578         1.0000   
         C         C         1.0       0.6753247291596384  0.12389555127593116           0.029308042218675556         1.0000   
         C         C         1.0       0.6631469640433629  0.11305734518752134           0.004640901631540517         1.0000   
         C         C         1.0       0.7156152713006172  0.11400144372243465           0.9377991245336792 1.0000   
         C         C         1.0       0.7335254424618654  0.06663853704093681           0.016551707329340415         1.0000   
         C         C         1.0       0.7317891035847239  0.06764044867916574           0.9578242269870838 1.0000   
         C         C         1.0       0.7260946907608541  0.08215438921923846           0.9314098034305361 1.0000   
         C         C         1.0       0.7240367415722616  0.09708853400342665           0.9621869222881746 1.0000   
         C         C         1.0       0.7272971537347502  0.09618991907747576           0.019614101158917263         1.0000   
         C         C         1.0       0.7307752775303038  0.08110565217369725           0.04660263589422553          1.0000   
         C         C         1.0       0.7253906620782189  0.1318444636455708  0.9506365021296914 1.0000   
         C         C         1.0       0.7173611397834914  0.14733862943478285           0.9376605202653427 1.0000   
         C         C         1.0       0.7248912808598867  0.1630423344782224  0.9441254929020808 1.0000   
         C         C         1.0       0.7419976558139013  0.16285013557219633           0.9603010464998101 1.0000   
         C         C         1.0       0.7504561918970517  0.1477780236301041  0.9702185652234098 1.0000   
         C         C         1.0       0.7423600107896112  0.1326876536544321  0.9665630376897578 1.0000   
         C         C         1.0       0.7312415584841292  0.11241434839169015           0.8445873516347838 1.0000   
         C         C         1.0       0.7325796274905251  0.11503797704771755           0.7866135406529843 1.0000   
         C         C         1.0       0.7184302798421393  0.1180158458848605  0.7558606463268199 1.0000   
         C         C         1.0       0.7025038489777745  0.1183281205785173  0.7804603104669102 1.0000   
         C         C         1.0       0.7013361192950572  0.11717564095474466           0.8396373712691526 1.0000   
         C         C         1.0       0.7155622956761584  0.11426859246125375           0.8720740050067981 1.0000   
         H         H         1.0       0.6545371595447108  0.10812359481638945           0.12477943409623043          1.0000   
         H         H         1.0       0.6318627420320384  0.07982153952034254           0.9935305621615298 1.0000   
         H         H         1.0       0.6373338206276333  0.05513165124252706           0.04345014319324747          1.0000   
         H         H         1.0       0.6552233990252722  0.0840906854592669  0.18824138859966635          1.0000   
         H         H         1.0       0.6183777152379041  0.1148961904895957  0.10099226112466253          1.0000   
         H         H         1.0       0.6055787463623934  0.13659819425777156           0.14609356436615775          1.0000   
         H         H         1.0       0.6361699182268142  0.17038891854419805           0.046095011475985714         1.0000   
         H         H         1.0       0.6503327455721593  0.14686790369742378           0.0035478691626598113        1.0000   
         H         H         1.0       0.6630177940967266  0.08988653726143503           0.9502025721592586 1.0000   
         H         H         1.0       0.6892228717126995  0.09037793568648089           0.9226321807990951 1.0000   
         H         H         1.0       0.6978541553038023  0.13485002266698257           0.029565763389562294         1.0000   
         H         H         1.0       0.6718199881045376  0.13338797040537004           0.05776202060672375          1.0000   
         H         H         1.0       0.7329205226767677  0.056902050984101844         0.9334758258533169 1.0000   
         H         H         1.0       0.725068316182241   0.08221253117757543           0.8868393459046349 1.0000   
         H         H         1.0       0.7242925137039455  0.10711568003519778           0.048043525911052765         1.0000   
         H         H         1.0       0.7336793733217702  0.08142242084318263           0.09083434676916169          1.0000   
         H         H         1.0       0.7035390767864189  0.1470013691787653  0.9249861929792683 1.0000   
         H         H         1.0       0.716035883452674   0.17321006254636023           0.9474273222410602 1.0000   
         H         H         1.0       0.7636027984664123  0.14815890914367705           0.9855685697943146 1.0000   
         H         H         1.0       0.748293690357212   0.12075258893095542           0.9734730851161841 1.0000   
         H         H         1.0       0.7430192327410106  0.10877096958665233           0.8639839351541989 1.0000   
         H         H         1.0       0.7442472850446409  0.11265141934139143           0.7640582272401615 1.0000   
         H         H         1.0       0.6911795246004161  0.11757558996962508           0.7553078616692863 1.0000   
         H         H         1.0       0.6883002136359645  0.11690171376867166           0.8570808310918938 1.0000   
         C         C         1.0       0.5071202629733217  0.146465433318833   0.4630839620301287 1.0000   
         C         C         1.0       0.5121142624179532  0.16323136004644279           0.4754211488640649 1.0000   
         C         C         1.0       0.5293886745866485  0.16684872863065625           0.48333360284981586          1.0000   
         C         C         1.0       0.5415099725755348  0.15505845502320195           0.4781280995309732 1.0000   
         C         C         1.0       0.5366918525236017  0.1390058568545022  0.4582391557338906 1.0000   
         C         C         1.0       0.5195556560426516  0.13537211737278965           0.4479059483622647 1.0000   
         H         H         1.0       0.5033782127256864  0.17372937425835622           0.4709678789642913 1.0000   
         H         H         1.0       0.5318393108072708  0.18022108426771521           0.48744912780059924          1.0000   
         H         H         1.0       0.5446536467842313  0.1289356931949754  0.4441796479139347 1.0000   
         H         H         1.0       0.5147462481986362  0.12314145776250515           0.43644362162826766          1.0000   
         C         C         1.0       0.5677682064416325  0.13384384116218606           0.5466625539110012 1.0000   
         C         C         1.0       0.5730915587411531  0.14397262988950152           0.5020397444663236 1.0000   
         C         C         1.0       0.586975610117118   0.13852547685241412           0.4713508858789914 1.0000   
         C         C         1.0       0.5943415267552825  0.12355957378057536           0.48186600219346815          1.0000   
         C         C         1.0       0.5896322620941842  0.11379021504999806           0.5271012795728045 1.0000   
         C         C         1.0       0.5761385694667905  0.11908826069675382           0.5589845988285701 1.0000   
         C         C         1.0       0.5618059309221571  0.15983728716012088           0.4817399087117503 1.0000   
         C         C         1.0       0.5670091443821569  0.17315530391247502           0.5286860479846762 1.0000   
         C         C         1.0       0.5829525218177514  0.18176379067747206           0.5224318718529288 1.0000   
         C         C         1.0       0.5890043894376533  0.19119946012372724           0.5655528331281837 1.0000   
         C         C         1.0       0.581101939657858   0.18996268842484001           0.6176197232729521 1.0000   
         C         C         1.0       0.5663783207391454  0.18083140741751375           0.6256355344203667 1.0000   
         C         C         1.0       0.5584192843299727  0.17349425400701565           0.5790393838855022 1.0000   
         C         C         1.0       0.5655068786061187  0.15717285380675236           0.3732613574641753 1.0000   
         C         C         1.0       0.5599367497202448  0.16356669211417452           0.32210734420258835          1.0000   
         C         C         1.0       0.5520206711319136  0.17855510587517587           0.3169324481883508 1.0000   
         C         C         1.0       0.5551955981690425  0.19014549354881763           0.3604110893084077 1.0000   
         C         C         1.0       0.5609976866954692  0.18427632305250147           0.41171920866732387          1.0000   
         C         C         1.0       0.5640670795725453  0.16695671454649283           0.4197180493782347 1.0000   
         C         C         1.0       0.5381306228634765  0.1818263486905413  0.26933039141496007          1.0000   
         C         C         1.0       0.5131035698288908  0.13285259897346302           0.246383593528729  1.0000   
         C         C         1.0       0.5177247559540474  0.13797576531356842           0.2973510570372125 1.0000   
         C         C         1.0       0.5238345990732879  0.15344827458553464           0.30776009925763076          1.0000   
         C         C         1.0       0.5286883803738996  0.1640776247712706  0.26221443514527665          1.0000   
         C         C         1.0       0.5223597305472613  0.1593157386129939  0.20855876212732033          1.0000   
         C         C         1.0       0.5155893137815506  0.14367930160834405           0.20135463122216254          1.0000   
         C         C         1.0       0.5493363966564975  0.1893733024055988  0.2171911842023424 1.0000   
         C         C         1.0       0.5524790977167018  0.2061109346403572  0.2098398031769223 1.0000   
         C         C         1.0       0.5589028233914505  0.21168461986792653           0.16031842144748298          1.0000   
         C         C         1.0       0.5655602286744399  0.20151648721088095           0.11923508873629506          1.0000   
         C         C         1.0       0.564256900263732   0.18419734128568446           0.12965343061617177          1.0000   
         C         C         1.0       0.5565814890353372  0.178490735064308   0.17903369319906004          1.0000   
         C         C         1.0       0.5137418193353718  0.20296374394715003           0.24596045862479654          1.0000   
         C         C         1.0       0.5014842196526028  0.21394225568975903           0.26144573185831915          1.0000   
         C         C         1.0       0.49628220673197765           0.21506401957704072          0.317339031067557  1.0000   
         C         C         1.0       0.5035322602734544  0.2042958528045849  0.35656813533392034          1.0000   
         C         C         1.0       0.5165850513919195  0.19338651526843495           0.343308976309775  1.0000   
         C         C         1.0       0.5222887573183654  0.19331857384564266           0.2868590412145927 1.0000   
         H         H         1.0       0.5564056437445397  0.13557828693740187           0.5684255253012009 1.0000   
         H         H         1.0       0.5915117551260645  0.14563562746216543           0.43437608596684   1.0000   
         H         H         1.0       0.6058352686062682  0.12058385685129022           0.4588793012224796 1.0000   
         H         H         1.0       0.5746723884119888  0.11142319441100083           0.5957874861958752 1.0000   
         H         H         1.0       0.5894260291395108  0.18203701618427212           0.4821821199838367 1.0000   
         H         H         1.0       0.6007973381648029  0.19825332240540255           0.5638552356185766 1.0000   
         H         H         1.0       0.5606165116567283  0.17770375841348296           0.6674370750380916 1.0000   
         H         H         1.0       0.546934200221152   0.1667672282444111  0.582827457536983  1.0000   
         H         H         1.0       0.5691213113665978  0.14415997628472887           0.3742543403302508 1.0000   
         H         H         1.0       0.557730868612695   0.15525959416514443           0.28644586540256733          1.0000   
         H         H         1.0       0.5503303252616755  0.20275524502566591           0.3582614590239466 1.0000   
         H         H         1.0       0.5588110575428461  0.19238289635001238           0.4492612107611876 1.0000   
         H         H         1.0       0.516363469401162   0.13038399580782425           0.33335159342692855          1.0000   
         H         H         1.0       0.5252267165805463  0.15870088342666677           0.3486515766990458 1.0000   
         H         H         1.0       0.5238328244589134  0.16669373656223088           0.1701064124651716 1.0000   
         H         H         1.0       0.5107433397222344  0.14226997548322834           0.1600851045635183 1.0000   
         H         H         1.0       0.5487548960171568  0.21429087474513578           0.2421079409524531 1.0000   
         H         H         1.0       0.5600085640089462  0.22521903415831665           0.15849593037165727          1.0000   
         H         H         1.0       0.5694445348518079  0.1759614649409922  0.09838968292032481          1.0000   
         H         H         1.0       0.5567671965168226  0.16554892484450923           0.19055839326980004          1.0000   
         H         H         1.0       0.5177316390980549  0.2018862086910891  0.20502860967049502          1.0000   
         H         H         1.0       0.49450987022950804           0.22050463439701123          0.23062616810012876          1.0000   
         H         H         1.0       0.4986330689610419  0.20484809189356612           0.3994286920440495 1.0000   
         H         H         1.0       0.5212949343158747  0.18433507334968616           0.3752451465262599 1.0000   
         C         C         1.0       0.5560697131328993  0.19393479436229075           0.978072348521664  1.0000   
         C         C         1.0       0.5635679580597861  0.193354361758013   0.9231856459452155 1.0000   
         C         C         1.0       0.5605523359369629  0.17984466371997107           0.8878398369768904 1.0000   
         C         C         1.0       0.5527721532394736  0.16554424707722615           0.9092960847249019 1.0000   
         C         C         1.0       0.5456690314513741  0.16651668110592732           0.9630304538003164 1.0000   
         C         C         1.0       0.5465733474139007  0.1805234736674104  0.9962836344755325 1.0000   
         H         H         1.0       0.5695469104898878  0.2051328987516063  0.9095694791516432 1.0000   
         H         H         1.0       0.5666060955473206  0.1820185775545177  0.8467211443187028 1.0000   
         H         H         1.0       0.5379793631354144  0.15649352771029976           0.9792104076300737 1.0000   
         H         H         1.0       0.540415948696239   0.1808052951381003  0.03618846575875034          1.0000   
         C         C         1.0       0.5615849410886502  0.13042968184759948           0.955583858796571  1.0000   
         C         C         1.0       0.5505258983858861  0.13158538858616267           0.9108464922325307 1.0000   
         C         C         1.0       0.5440392737776212  0.11658274226185737           0.8891681729434642 1.0000   
         C         C         1.0       0.5485942433972013  0.10095005795222624           0.9124353264093553 1.0000   
         C         C         1.0       0.557862608128968   0.10099237996667366           0.9623286645981816 1.0000   
         C         C         1.0       0.5650289679101658  0.11556526938636011           0.982454835180545  1.0000   
         C         C         1.0       0.5506430347825167  0.14868844551529592           0.8752490209143368 1.0000   
         C         C         1.0       0.5657574731366443  0.1444986766003751  0.8322028787934418 1.0000   
         C         C         1.0       0.5637996484667699  0.13287757186383073           0.7891653948772213 1.0000   
         C         C         1.0       0.5775895443802437  0.12583350912719765           0.7632272912831665 1.0000   
         C         C         1.0       0.5932339625796678  0.1309718257243382  0.777424767884172  1.0000   
         C         C         1.0       0.5955229022435321  0.143436654587951   0.8189689686855604 1.0000   
         C         C         1.0       0.5820446487735981  0.14890940707930245           0.8475260474599388 1.0000   
         C         C         1.0       0.5179817545624145  0.14823150658511305           0.8709693939067479 1.0000   
         C         C         1.0       0.5035157146370369  0.1458230802719337  0.8402850539942507 1.0000   
         C         C         1.0       0.5029795801259478  0.14876602234307482           0.7829014101539196 1.0000   
         C         C         1.0       0.5171761614867894  0.1554488151179247  0.7582631307659553 1.0000   
         C         C         1.0       0.531964748115365   0.15705404488267502           0.7872002103417836 1.0000   
         C         C         1.0       0.5329479146187867  0.15185384473692976           0.8425591463792899 1.0000   
         C         C         1.0       0.4851161331977555  0.14666284414558417           0.7524075561762139 1.0000   
         C         C         1.0       0.46954020019087916           0.09539140031674287          0.8095471571329783 1.0000   
         C         C         1.0       0.45935351724527124           0.10837819749269983          0.8240518332883083 1.0000   
         C         C         1.0       0.46334802778210227           0.12495515188316889          0.8076078283309451 1.0000   
         C         C         1.0       0.4778955140880051  0.1280086230589423  0.7745841335230697 1.0000   
         C         C         1.0       0.4881641081912885  0.11467150582244814           0.7626142764500851 1.0000   
         C         C         1.0       0.48344234611562487           0.09874270209103297          0.7772351102406836 1.0000   
         C         C         1.0       0.48489850111995986           0.1463676284273189 0.6838315718850394 1.0000   
         C         C         1.0       0.489220616930021   0.16103075647342646           0.6538848393230547 1.0000   
         C         C         1.0       0.4871062886924858  0.16325526555490158           0.5960230795432547 1.0000   
         C         C         1.0       0.47901869478302006           0.1504978522084226 0.5649064415539162 1.0000   
         C         C         1.0       0.47590265855219493           0.13526852514323745          0.5917946548632774 1.0000   
         C         C         1.0       0.47805847451415856           0.13355832889559152          0.6507183654664807 1.0000   
         C         C         1.0       0.4566496762552985  0.16213262548554766           0.7496893154696952 1.0000   
         C         C         1.0       0.44554203376292434           0.17503806035940322          0.762386326489361  1.0000   
         C         C         1.0       0.45144573325600823           0.18896475992985265          0.7902065148377865 1.0000   
         C         C         1.0       0.46760790652168    0.18853543291819214           0.812773607197732  1.0000   
         C         C         1.0       0.4784523320755679  0.17504136392990952           0.8060095759370939 1.0000   
         C         C         1.0       0.47297456355057726           0.16202419602499568          0.7705985120477897 1.0000   
         H         H         1.0       0.5683667112629459  0.14195247159433858           0.9704353150459353 1.0000   
         H         H         1.0       0.5354197526819218  0.1167451093764221  0.8513671353884644 1.0000   
         H         H         1.0       0.5440501402861762  0.08900062797925012           0.8946128885683476 1.0000   
         H         H         1.0       0.5741916030550462  0.11599465117231052           0.01719075270527881          1.0000   
         H         H         1.0       0.5508360509994354  0.1281585885375226  0.7790067972912439 1.0000   
         H         H         1.0       0.575483847257267   0.11723033438100783           0.7275011590337823 1.0000   
         H         H         1.0       0.6078021999769782  0.14728327724272602           0.8328910547506846 1.0000   
         H         H         1.0       0.5848379268260654  0.15502432133626737           0.8885779997791554 1.0000   
         H         H         1.0       0.5166790666068972  0.14508385720890735           0.9134625368452138 1.0000   
         H         H         1.0       0.4920646653025891  0.1428329932647265  0.861641339394006  1.0000   
         H         H         1.0       0.5181022543929679  0.15896844723718404           0.7152127953125014 1.0000   
         H         H         1.0       0.5429045298041801  0.16161496300615433           0.7662327391978015 1.0000   
         H         H         1.0       0.4474359327500975  0.10672693372381725           0.8490153861651727 1.0000   
         H         H         1.0       0.45412995741226675           0.13540655289133097          0.8171605170837134 1.0000   
         H         H         1.0       0.4999837456337057  0.11653205991552694           0.7380163141968287 1.0000   
         H         H         1.0       0.49202573073694883           0.08826160011503048          0.7661658031179429 1.0000   
         H         H         1.0       0.4948814398116645  0.17063529225445676           0.6811039867611585 1.0000   
         H         H         1.0       0.4907761596715138  0.17449681411190696           0.5718161315916928 1.0000   
         H         H         1.0       0.46825631823264596           0.12579492822755622          0.5703156204902825 1.0000   
         H         H         1.0       0.470995659486507   0.12425904582558703           0.6711454130777019 1.0000   
         H         H         1.0       0.4522624246745647  0.15187506798220166           0.7251428862147019 1.0000   
         H         H         1.0       0.43304650585785504           0.1767917250854393 0.7478235611682305 1.0000   
         H         H         1.0       0.47148947413484504           0.19999581843477118          0.8351588161854512 1.0000   
         H         H         1.0       0.4909975281081996  0.17786223265236367           0.8212206799296854 1.0000   
         C         C         1.0       0.6341344283888509  0.9516884204407948  0.16418473079926182          1.0000   
         C         C         1.0       0.6421493463755447  0.9492736872664852  0.21346052679971558          1.0000   
         C         C         1.0       0.6582529256710394  0.953741051015084   0.2230326572592726 1.0000   
         C         C         1.0       0.6671923955723711  0.9612879027155695  0.18117478763595812          1.0000   
         C         C         1.0       0.660532839112008   0.9604350204512438  0.127283970737657  1.0000   
         C         C         1.0       0.6436604580691775  0.9570290772436597  0.11808648692556822          1.0000   
         H         H         1.0       0.6343387521407128  0.9469982828631156  0.2513387883104693 1.0000   
         H         H         1.0       0.6634344935532269  0.950347168965267   0.2643220887779564 1.0000   
         H         H         1.0       0.6690909329093301  0.9634502994268201  0.09219161375481577          1.0000   
         H         H         1.0       0.6373962419756779  0.9601449334604363  0.08105737836939197          1.0000   
         C         C         1.0       0.6608968398670241  0.9969855279225593  0.17798969000736747          1.0000   
         C         C         1.0       0.6779024712014731  0.9920711415489025  0.17362142688492377          1.0000   
         C         C         1.0       0.6899477103288789  0.00447073933241815           0.16301203200513495          1.0000   
         C         C         1.0       0.6852871198629904  0.0203101881383998  0.1575832731997335 1.0000   
         C         C         1.0       0.6686265593822809  0.025065174122754108         0.15788859483001424          1.0000   
         C         C         1.0       0.655984445830627   0.013047569145988813         0.1648773351927302 1.0000   
         C         C         1.0       0.6829082919087839  0.9733733881253664  0.19108543610201104          1.0000   
         C         C         1.0       0.6962444188606148  0.9622875808127628  0.1581661516644973 1.0000   
         C         C         1.0       0.7055721963140125  0.9685766444712466  0.11071608031296355          1.0000   
         C         C         1.0       0.7174873107800865  0.9597192838188342  0.08594797255058761          1.0000   
         C         C         1.0       0.7202941444176306  0.943036997031871   0.10010195383476625          1.0000   
         C         C         1.0       0.7112437960250136  0.936459839993072   0.14307144283185758          1.0000   
         C         C         1.0       0.699694074152868   0.946153588129402   0.17493277771317767          1.0000   
         C         C         1.0       0.6796379447726185  0.9821702939275255  0.2934931356311076 1.0000   
         C         C         1.0       0.6857356230430809  0.9914037724881021  0.3396625819467195 1.0000   
         C         C         1.0       0.7021493346327993  0.9969313211520322  0.3403462372313562 1.0000   
         C         C         1.0       0.71319993508236    0.9895674101957023  0.30384645060811105          1.0000   
         C         C         1.0       0.7079359206901839  0.9805424412929136  0.25874004728190003          1.0000   
         C         C         1.0       0.6905269240298688  0.9771365105578246  0.25155565147470815          1.0000   
         C         C         1.0       0.7070648763098558  0.011674513681710685         0.38214361482024095          1.0000   
         C         C         1.0       0.6716502993941131  0.05434513287472531           0.37255608693535247          1.0000   
         C         C         1.0       0.6773047007434025  0.048269637174028324         0.4243785849027597 1.0000   
         C         C         1.0       0.6879060906798816  0.03451168598789778           0.4315431972125517 1.0000   
         C         C         1.0       0.6924327079451735  0.02605808798798126           0.3832609349528843 1.0000   
         C         C         1.0       0.6858776605758059  0.0315242213766489  0.33196633419899657          1.0000   
         C         C         1.0       0.6754838862066329  0.04491488453836401           0.3251625302504249 1.0000   
         C         C         1.0       0.7223471696434776  0.024844817342443593         0.3722240623070125 1.0000   
         C         C         1.0       0.729011720803654   0.02667911114295629           0.3182894106710024 1.0000   
         C         C         1.0       0.7431438944032394  0.03619949950382173           0.308455084076529  1.0000   
         C         C         1.0       0.7504947103829777  0.045276947121009714         0.3528360446835454 1.0000   
         C         C         1.0       0.74237425574663    0.04604279723108706           0.40436208273640656          1.0000   
         C         C         1.0       0.7286336395221523  0.035876880182410975         0.41314686359256736          1.0000   
         C         C         1.0       0.7276244479460761  0.9934271159445865  0.4360565628081048 1.0000   
         C         C         1.0       0.732117899013832   0.9825451108933054  0.475901376769853  1.0000   
         C         C         1.0       0.7202994335466569  0.9764287176000003  0.5127918139122003 1.0000   
         C         C         1.0       0.7040967079789459  0.9823634975236482  0.5112818723388711 1.0000   
         C         C         1.0       0.7000146231970439  0.9953314499304649  0.47281906347807934          1.0000   
         C         C         1.0       0.7116310914375676  0.00030673506010825413       0.43350587482650493          1.0000   
         H         H         1.0       0.651805961369806   0.9869844355807408  0.18733466342657706          1.0000   
         H         H         1.0       0.703396772778245   0.0023852108972042263        0.15983532295230776          1.0000   
         H         H         1.0       0.6949773934389978  0.029380616498669854         0.1503346268975878 1.0000   
         H         H         1.0       0.6426186824230163  0.016136433535727024         0.16241333743488884          1.0000   
         H         H         1.0       0.7030615648994545  0.9806965151120424  0.09229298481026116          1.0000   
         H         H         1.0       0.7241151906120854  0.964848447729826   0.04706202717406627          1.0000   
         H         H         1.0       0.7122720911017734  0.9226999558584125  0.15244057712282522          1.0000   
         H         H         1.0       0.6921644274588362  0.9393460655170907  0.20526474715442264          1.0000   
         H         H         1.0       0.6657416352610408  0.9832513183320103  0.28933652559382317          1.0000   
         H         H         1.0       0.6774588801594489  0.9968029221878796  0.37009397593180643          1.0000   
         H         H         1.0       0.7268034578602863  0.9920691156025232  0.31002576346842076          1.0000   
         H         H         1.0       0.7162724945072996  0.9777994839995674  0.22281513811792522          1.0000   
         H         H         1.0       0.6732979777870298  0.05427843699120083           0.4633212705151306 1.0000   
         H         H         1.0       0.6947445118895963  0.03201881209446533           0.46917566407498973          1.0000   
         H         H         1.0       0.6899903735606782  0.02588276183794047           0.2919521185936545 1.0000   
         H         H         1.0       0.6720081451407115  0.049833643622917645         0.2817557925106982 1.0000   
         H         H         1.0       0.7234080141409233  0.020638656847222547         0.2810678854843831 1.0000   
         H         H         1.0       0.7477675075009207  0.0374996341286713  0.26465878623838957          1.0000   
         H         H         1.0       0.7464704875567616  0.05491156573290534           0.43506223239270464          1.0000   
         H         H         1.0       0.7216363381030001  0.033957216327421325         0.4546274644867224 1.0000   
         H         H         1.0       0.7377484575643476  0.9958431296260646  0.40272959651785134          1.0000   
         H         H         1.0       0.7441827566278005  0.9788484348415677  0.4803625340188354 1.0000   
         H         H         1.0       0.6951746220384719  0.9777710661354034  0.5420056108985299 1.0000   
         H         H         1.0       0.68705179459065    0.9986220164890008  0.4728476551152718 1.0000   
         C         C         1.0       0.6190725874402069  0.9681245688655392  0.6302690554275314 1.0000   
         C         C         1.0       0.6184518576832942  0.9734492346698813  0.6849930755690445 1.0000   
         C         C         1.0       0.6326178480408234  0.9810198643782139  0.707246556635526  1.0000   
         C         C         1.0       0.6471841836733657  0.9842816580507475  0.6763740516452368 1.0000   
         C         C         1.0       0.6470065244106511  0.9799081651283704  0.6199819927911858 1.0000   
         C         C         1.0       0.6334562872288749  0.9710341438267798  0.5980990338728824 1.0000   
         H         H         1.0       0.6087294408519304  0.9698555057244933  0.7127788030724812 1.0000   
         H         H         1.0       0.6336253690946604  0.9852720767307669  0.7496529324049799 1.0000   
         H         H         1.0       0.6574055023370062  0.9844975045908126  0.5902751574330293 1.0000   
         H         H         1.0       0.6348683426940815  0.9679603313535964  0.5546991243633524 1.0000   
         C         C         1.0       0.6593182635294264  0.01774386060433719           0.6203319699583565 1.0000   
         C         C         1.0       0.6556857067026444  0.012985648846097098         0.6754179503118675 1.0000   
         C         C         1.0       0.6441173032222773  0.022783789379773545         0.7054306013060608 1.0000   
         C         C         1.0       0.6371206485313765  0.03710716263990799           0.6834013277262352 1.0000   
         C         C         1.0       0.6427203954373378  0.04244018451725995           0.6307506316222999 1.0000   
         C         C         1.0       0.6532671156467325  0.032815185215910425         0.5985734141059907 1.0000   
         C         C         1.0       0.6626371290873739  0.9953112295541625  0.7009900972837373 1.0000   
         C         C         1.0       0.6804156151951416  0.9894006749986732  0.6752460148766428 1.0000   
         C         C         1.0       0.6940058426128702  0.00012704653752826367       0.6628923801904852 1.0000   
         C         C         1.0       0.7096229593879527  0.9941640744227143  0.6469404143416128 1.0000   
         C         C         1.0       0.7120656084429687  0.9773340065258963  0.6423495697863117 1.0000   
         C         C         1.0       0.7000733622081808  0.965713211681204   0.6587043700972132 1.0000   
         C         C         1.0       0.6844321914581537  0.9720451238953947  0.6729467405459806 1.0000   
         C         C         1.0       0.667725834880039   0.9793226309620083  0.8005278470033608 1.0000   
         C         C         1.0       0.678514696337266   0.9782845189970459  0.847771141709903  1.0000   
         C         C         1.0       0.6872833667162669  0.9925870934839086  0.8659266743532041 1.0000   
         C         C         1.0       0.683800785023757   0.007660162557085126         0.8381249092273142 1.0000   
         C         C         1.0       0.6741460645225354  0.008654320900882917         0.7901542030310276 1.0000   
         C         C         1.0       0.6671488474934082  0.9941892558000233  0.7689992506344977 1.0000   
         C         C         1.0       0.7045634178928444  0.9910815905941913  0.9021000802589638 1.0000   
         C         C         1.0       0.7152383969004243  0.02768412205603643           0.03483438480768797          1.0000   
         C         C         1.0       0.7005660597356279  0.02859153167599815           0.005601371450213  1.0000   
         C         C         1.0       0.6960870116555086  0.01592877993287889           0.9688860112153909 1.0000   
         C         C         1.0       0.7055756860841789  0.0011219496913084104        0.9620636105759303 1.0000   
         C         C         1.0       0.7196013692014771  0.00041144998419895273       0.9981841743428052 1.0000   
         C         C         1.0       0.7245362657898433  0.013063074429711108         0.03169855416679668          1.0000   
         C         C         1.0       0.7178837840565117  0.9989791196928738  0.8621995337766584 1.0000   
         C         C         1.0       0.7210310302376268  0.9910153207293027  0.8122960716240599 1.0000   
         C         C         1.0       0.731897469456303   0.9974995164153663  0.7726287606791723 1.0000   
         C         C         1.0       0.7394695606030215  0.01262140504758591           0.7819005374386275 1.0000   
         C         C         1.0       0.7380419957530862  0.020379984958426522         0.8345735123849796 1.0000   
         C         C         1.0       0.7272936902362791  0.013554701247614043         0.8736084836967271 1.0000   
         C         C         1.0       0.6960091343673479  0.9618074102681329  0.9531377374032182 1.0000   
         C         C         1.0       0.7002185805951413  0.9458091084837332  0.9766764227230461 1.0000   
         C         C         1.0       0.7169389615898409  0.9410593011747337  0.9711924187680605 1.0000   
         C         C         1.0       0.7289070651334307  0.9508504747628098  0.9434793113224627 1.0000   
         C         C         1.0       0.7239824467528738  0.9647703052847084  0.9173524323562648 1.0000   
         C         C         1.0       0.7079094558798538  0.9718674124721075  0.9243144389806873 1.0000   
         H         H         1.0       0.668059707225628   0.010481832580852668         0.5927000587366533 1.0000   
         H         H         1.0       0.6393954754494194  0.01907141153760672           0.7465908037943084 1.0000   
         H         H         1.0       0.6287659228249225  0.04477626503769194           0.7074045759431681 1.0000   
         H         H         1.0       0.657454735902937   0.036853022455395124         0.5575571217985856 1.0000   
         H         H         1.0       0.6929760074196114  0.013777125630636045         0.6669712902458582 1.0000   
         H         H         1.0       0.7190804864547485  0.002985449392610473         0.6374661730380434 1.0000   
         H         H         1.0       0.7032323039564242  0.9525923136103126  0.6570897794950722 1.0000   
         H         H         1.0       0.674594381102846   0.9628289627777108  0.6822954712798088 1.0000   
         H         H         1.0       0.6629506218332177  0.9682696411816868  0.7783062682301788 1.0000   
         H         H         1.0       0.6834646634789362  0.966669300175068   0.8589580103569213 1.0000   
         H         H         1.0       0.6909023780473303  0.01844935634297995           0.8430915293156888 1.0000   
         H         H         1.0       0.6753181571011347  0.019650052353624714         0.7649003423969412 1.0000   
         H         H         1.0       0.690996586283649   0.038864314929875965         0.008586402767762458         1.0000   
         H         H         1.0       0.6860538806054394  0.01806906910498185           0.9411655490918107 1.0000   
         H         H         1.0       0.7274891867498962  0.989237254825621   0.9948003380549251 1.0000   
         H         H         1.0       0.7365399252163446  0.011731168897878508         0.055702240284413174         1.0000   
         H         H         1.0       0.7137115840686846  0.9801830017688455  0.8009399212678824 1.0000   
         H         H         1.0       0.7334832773981942  0.9925405241900693  0.7338456094436304 1.0000   
         H         H         1.0       0.7430910529908789  0.032607384695435115         0.8381702547094237 1.0000   
         H         H         1.0       0.7245520559337565  0.02154045949004213           0.9077643843618983 1.0000   
         H         H         1.0       0.6827843741101172  0.9651043105030125  0.9591668077614158 1.0000   
         H         H         1.0       0.6908324223946036  0.9386023811222478  0.9995393966581436 1.0000   
         H         H         1.0       0.7421550160975303  0.9496322614615674  0.9470436207515515 1.0000   
         H         H         1.0       0.7338477173196327  0.971827778312025   0.8966262374924169 1.0000   
         C         C         1.0       0.521641136307944   0.9726336388563974  0.9626353497755175 1.0000   
         C         C         1.0       0.5311019275097273  0.9669869351555304  0.0060455448900302855        1.0000   
         C         C         1.0       0.5413381546823653  0.9779376245236542  0.03322902181805865          1.0000   
         C         C         1.0       0.5417593459088534  0.9946524406009116  0.0191593835408288 1.0000   
         C         C         1.0       0.532540655874657   0.9996514105839641  0.9731976900898577 1.0000   
         C         C         1.0       0.5216034449441277  0.9888603090211081  0.9474709942506033 1.0000   
         H         H         1.0       0.5330027022235427  0.9533750136679315  0.01959019932964812          1.0000   
         H         H         1.0       0.5487330100870255  0.9734853787978369  0.06915780723301856          1.0000   
         H         H         1.0       0.5321621685256844  0.01281498224395472           0.9646001551521435 1.0000   
         H         H         1.0       0.5157713985447573  0.9935350796698446  0.9115529687623679 1.0000   
         C         C         1.0       0.564772852347128   0.024663189333615554         0.9811654884097626 1.0000   
         C         C         1.0       0.5613411201165857  0.023399139513527345         0.03715614704116055          1.0000   
         C         C         1.0       0.5668276372322296  0.03599671605712551           0.07306937962693572          1.0000   
         C         C         1.0       0.5714253430334855  0.05128312316889616           0.05239277313828472          1.0000   
         C         C         1.0       0.5712516043432321  0.05391755680303456           0.9950544197316618 1.0000   
         C         C         1.0       0.5678259352313291  0.04031862867175495           0.9583129032250641 1.0000   
         C         C         1.0       0.5516521720952015  0.007366487152533185         0.06175862243208363          1.0000   
         C         C         1.0       0.5674258829405345  0.9978085434921882  0.09212257839595918          1.0000   
         C         C         1.0       0.5699288909290071  0.9992110998270364  0.15018177144523875          1.0000   
         C         C         1.0       0.5835245527955296  0.9910856909183189  0.17334460153979336          1.0000   
         C         C         1.0       0.5933726222386204  0.9806344352919081  0.14214381931688502          1.0000   
         C         C         1.0       0.591777585916132   0.9801369182062287  0.08507441518956016          1.0000   
         C         C         1.0       0.5787662298911551  0.9885056831579518  0.059763151459767856         1.0000   
         C         C         1.0       0.5258313265165647  0.026401632649103224         0.06995304200026942          1.0000   
         C         C         1.0       0.5110246692172505  0.03253861449154605           0.09179743164086163          1.0000   
         C         C         1.0       0.5057731966093653  0.026709749741976374         0.14480366151517624          1.0000   
         C         C         1.0       0.5149297234491623  0.014396898266414215         0.17040382797342954          1.0000   
         C         C         1.0       0.5290057713225651  0.007534350705789894         0.14285813808931055          1.0000   
         C         C         1.0       0.5353851804830859  0.014100359853365552         0.09446469664296787          1.0000   
         C         C         1.0       0.49151067516099184           0.03635649023526155          0.17638728395122666          1.0000   
         C         C         1.0       0.5143082561417627  0.08548374468970521           0.20365895147533514          1.0000   
         C         C         1.0       0.5044978441306819  0.08292102296159531           0.15762141939192234          1.0000   
         C         C         1.0       0.4967402850743222  0.06733330803638204           0.1502334806311778 1.0000   
         C         C         1.0       0.5002517689279855  0.05383911289533483           0.18644545341575122          1.0000   
         C         C         1.0       0.5124400287950954  0.05626739185775076           0.22740861578131966          1.0000   
         C         C         1.0       0.5196979478241668  0.07159559237460655           0.23292556031151143          1.0000   
         C         C         1.0       0.48461602877633364           0.028849459737135152         0.23447491139860538          1.0000   
         C         C         1.0       0.4805294000361722  0.011464886836200172         0.23391913199951128          1.0000   
         C         C         1.0       0.47567260891491664           0.00380746036120283          0.2824151985699646 1.0000   
         C         C         1.0       0.4755420768177547  0.010973014617172483         0.3334095500608469 1.0000   
         C         C         1.0       0.4776450701418587  0.028462038151932045         0.3347355299391526 1.0000   
         C         C         1.0       0.48197457192412047           0.03697434444515846          0.2863886234726765 1.0000   
         C         C         1.0       0.46213233004324256           0.04881487120545169          0.15035592095772682          1.0000   
         C         C         1.0       0.44847688052853585           0.05172107317996111          0.11590466347759265          1.0000   
         C         C         1.0       0.4465908597585086  0.042483752027211885         0.06713348065708957          1.0000   
         C         C         1.0       0.4580768532857542  0.02976868224018503           0.0537301047097154 1.0000   
         C         C         1.0       0.47148491978415297           0.02671773082566209          0.089147932560256  1.0000   
         C         C         1.0       0.47416528617421966           0.03680290277849885          0.1380684806196062 1.0000   
         H         H         1.0       0.5645076746132784  0.013858642131017618         0.9526215969622092 1.0000   
         H         H         1.0       0.5644285153423092  0.03467904864705851           0.11742500915932001          1.0000   
         H         H         1.0       0.5719186267883136  0.06127534465368312           0.08300516211175335          1.0000   
         H         H         1.0       0.5709784652391412  0.041764164913273394         0.9145329969490282 1.0000   
         H         H         1.0       0.561925001527863   0.006988039682890745         0.1777714181315428 1.0000   
         H         H         1.0       0.5848432413366189  0.993675595148756   0.21714654647479836          1.0000   
         H         H         1.0       0.60131052736583    0.9730356993569635  0.0624699555597934 1.0000   
         H         H         1.0       0.5786599347235822  0.9867722412978441  0.014419267638401179         1.0000   
         H         H         1.0       0.5285568923087611  0.02955384047645815           0.02768623514790347          1.0000   
         H         H         1.0       0.5045480697708289  0.04172406370340309           0.06646277979168548          1.0000   
         H         H         1.0       0.5130790098323256  0.008923730909596861         0.21288093965376545          1.0000   
         H         H         1.0       0.5352450576895265  0.9977569959071438  0.16516602119802576          1.0000   
         H         H         1.0       0.5018981295029754  0.09374461489881547           0.1290367678315627 1.0000   
         H         H         1.0       0.48819753885634964           0.06620896714979674          0.11562239419801673          1.0000   
         H         H         1.0       0.5167200273910828  0.04529327293587282           0.25355819810943225          1.0000   
         H         H         1.0       0.527420425659063   0.07219605879473656           0.2691748398976721 1.0000   
         H         H         1.0       0.4825435126224985  0.0031377111717110218        0.19887377136519868          1.0000   
         H         H         1.0       0.4726860377414095  0.9908164325687068  0.2784997178186111 1.0000   
         H         H         1.0       0.477176284695507   0.035885144652766154         0.37274797130337095          1.0000   
         H         H         1.0       0.4831093376228168  0.050081572151124965         0.28731826287457063          1.0000   
         H         H         1.0       0.4629671863788864  0.05642008348679339           0.18764367517891564          1.0000   
         H         H         1.0       0.44022958654609334           0.06252185445739644          0.13034118194327132          1.0000   
         H         H         1.0       0.4551523237047933  0.021544832826976723         0.016018443324308018         1.0000   
         H         H         1.0       0.47915320510152964           0.015901226585847805         0.07892326013357788          1.0000   
         C         C         1.0       0.5053840889552179  0.01375370604703563           0.4362392055196485 1.0000   
         C         C         1.0       0.517552913613477   0.0010838854201249415        0.43931321084168085          1.0000   
         C         C         1.0       0.532807445270269   0.004321100661054178         0.4636119382976976 1.0000   
         C         C         1.0       0.5367278477344176  0.01948410448636162           0.4861394493886349 1.0000   
         C         C         1.0       0.5256785677911393  0.03254883636316275           0.47609491571685186          1.0000   
         C         C         1.0       0.5100732929437747  0.030287001108057376         0.45100806393607606          1.0000   
         H         H         1.0       0.513725312820371   0.9890540045011933  0.42590062976633086          1.0000   
         H         H         1.0       0.5416160955001343  0.9944001225606691  0.470450297073478  1.0000   
         H         H         1.0       0.5289073849979437  0.0457048829553266  0.4890519469633092 1.0000   
         H         H         1.0       0.5011936509152353  0.04050865702026418           0.45070042744363825          1.0000   
         C         C         1.0       0.5657293718900577  0.04644565921705168           0.47387686621003877          1.0000   
         C         C         1.0       0.5611808896964462  0.04002215504461604           0.524911946702963  1.0000   
         C         C         1.0       0.5668441050752342  0.04820885890529025           0.572852273141182  1.0000   
         C         C         1.0       0.577553939114235   0.06182403750821308           0.5686054169601731 1.0000   
         C         C         1.0       0.5823909666295662  0.06811025333486898           0.5162527453227465 1.0000   
         C         C         1.0       0.5761930417028807  0.06004395931739559           0.4683199185003076 1.0000   
         C         C         1.0       0.5513772046498875  0.021917071474228056         0.5326200777148121 1.0000   
         C         C         1.0       0.566182440840543   0.008704226885467348         0.5334325012508934 1.0000   
         C         C         1.0       0.5734159026799365  0.003927771971944383         0.5848546487807559 1.0000   
         C         C         1.0       0.5857926351501392  0.9923340306747042  0.587413833263032  1.0000   
         C         C         1.0       0.5912924488598984  0.9848179750452956  0.5363463772752202 1.0000   
         C         C         1.0       0.5858066203231898  0.9911601985884504  0.4859929288449027 1.0000   
         C         C         1.0       0.5734799558827839  0.0033485218502669056        0.4832346282546979 1.0000   
         C         C         1.0       0.5313681710542846  0.034235254253088154         0.6124919615311569 1.0000   
         C         C         1.0       0.5185482574572003  0.03232034481843593           0.650017297860833  1.0000   
         C         C         1.0       0.5127141724888229  0.015806651535406946         0.6644147016303583 1.0000   
         C         C         1.0       0.5207062633196428  0.0026060263620684143        0.6398063152009478 1.0000   
         C         C         1.0       0.5340499031613549  0.004618268104219059         0.6034892411713293 1.0000   
         C         C         1.0       0.5390041016058194  0.020763804194026347         0.5870407279800027 1.0000   
         C         C         1.0       0.496883924620706   0.01196481260121085           0.7082999554841415 1.0000   
         C         C         1.0       0.4814852600325627  0.05148343044088444           0.8274719048080277 1.0000   
         C         C         1.0       0.4699003092778914  0.040416374218027684         0.8063674072778481 1.0000   
         C         C         1.0       0.4751056944205616  0.027846089929736362         0.7691554606267426 1.0000   
         C         C         1.0       0.4920576706502012  0.02609914255657353           0.7539469294390462 1.0000   
         C         C         1.0       0.5028710199118163  0.03751686219343875           0.7757441940183    1.0000   
         C         C         1.0       0.4983223585140988  0.04956459469659369           0.8123951524319293 1.0000   
         C         C         1.0       0.5012916631200488  0.9971187647076389  0.7537919352589577 1.0000   
         C         C         1.0       0.4893824909428173  0.985720545943675   0.7742451813010462 1.0000   
         C         C         1.0       0.49438485604486193           0.9730743365641078 0.8094178438404518 1.0000   
         C         C         1.0       0.5106792285078131  0.971286553235735   0.828181964667824  1.0000   
         C         C         1.0       0.5229186421664744  0.9816941202226661  0.8063165873299613 1.0000   
         C         C         1.0       0.5182400809397972  0.995094447139565   0.7737870123814335 1.0000   
         C         C         1.0       0.4750621191438579  0.022102706054393018         0.6359340432451025 1.0000   
         C         C         1.0       0.46433640172489665           0.01996943012650143          0.5915631462129454 1.0000   
         C         C         1.0       0.45846630176665654           0.004615919848736771         0.5735628421912189 1.0000   
         C         C         1.0       0.46605186727299935           0.9911447323137276 0.600209737069022  1.0000   
         C         C         1.0       0.478477392137781   0.9927774619240723  0.6416793840163997 1.0000   
         C         C         1.0       0.4823664139862817  0.008488423735733885         0.6624138366981878 1.0000   
         H         H         1.0       0.5592606976401082  0.04130913149712456           0.4383268943654986 1.0000   
         H         H         1.0       0.5653540014132356  0.0433014184958489  0.6152913348630531 1.0000   
         H         H         1.0       0.5833630958060577  0.0671705501572526  0.6067571724070555 1.0000   
         H         H         1.0       0.5795051925686714  0.06303556929236698           0.42616385790140693          1.0000   
         H         H         1.0       0.5703533131485241  0.00915211515152814           0.6225114363151535 1.0000   
         H         H         1.0       0.5896570165199646  0.9881240212831573  0.628115390865639  1.0000   
         H         H         1.0       0.5892162973677991  0.9854329701728145  0.44661092883293835          1.0000   
         H         H         1.0       0.5688176500836384  0.006774885751293702         0.4447074900579931 1.0000   
         H         H         1.0       0.5325933671073914  0.04749937289199169           0.5993266681412491 1.0000   
         H         H         1.0       0.5109439062931713  0.04271440272690685           0.6620162625793095 1.0000   
         H         H         1.0       0.5179748897231102  0.9898717755293603  0.6535428140272628 1.0000   
         H         H         1.0       0.5402716729510378  0.9935775068054421  0.5858269588776771 1.0000   
         H         H         1.0       0.45638661730639485           0.04188162054849265          0.8160986220265369 1.0000   
         H         H         1.0       0.46522001053129064           0.020240953829518293         0.7517284688257609 1.0000   
         H         H         1.0       0.5169359369554994  0.036615657602511176         0.7691987545903491 1.0000   
         H         H         1.0       0.5066921115172077  0.05935321332554855           0.8259436619109827 1.0000   
         H         H         1.0       0.47589532785268185           0.9887815836781942 0.7656384435620383 1.0000   
         H         H         1.0       0.4849444744855863  0.9650884270501875  0.8298986391895958 1.0000   
         H         H         1.0       0.5355544742940525  0.9812345655072371  0.8217483058843013 1.0000   
         H         H         1.0       0.528864646498577   0.0035632365091362583        0.7619214290035337 1.0000   
         H         H         1.0       0.4808250656744673  0.034455432584181045         0.6445791715907082 1.0000   
         H         H         1.0       0.46064343438771305           0.030618057596999648         0.5664007032878218 1.0000   
         H         H         1.0       0.46306479272487083           0.9785598939905941 0.5881185461412705 1.0000   
         H         H         1.0       0.484305419351729   0.982386160517806   0.662316019249774  1.0000   
         C         C         1.0       0.307204635949349   0.29750242876107064           0.352909816453214  1.0000   
         C         C         1.0       0.29367077393755864           0.3076768698041408 0.3496857369437053 1.0000   
         C         C         1.0       0.2947005158638756  0.3226580189400823  0.3185304430238144 1.0000   
         C         C         1.0       0.3104801159476961  0.32814092934478334           0.2993473278893329 1.0000   
         C         C         1.0       0.3245443814461202  0.3185500109179498  0.30935829400957754          1.0000   
         C         C         1.0       0.32306024406353395           0.3032056761718989 0.33752704751361096          1.0000   
         H         H         1.0       0.2815126930254114  0.30654735825994167           0.3725312882153487 1.0000   
         H         H         1.0       0.2830689740274273  0.32990191544425385           0.31466143145867426          1.0000   
         H         H         1.0       0.33743487640249076           0.3223594681119327 0.3000263962031079 1.0000   
         H         H         1.0       0.3343509569249749  0.29620632406414865           0.34809919987607346          1.0000   
         C         C         1.0       0.33386556663841416           0.3575791462434144 0.3139451103379693 1.0000   
         C         C         1.0       0.32732282661961815           0.3542907188033241 0.26133158630689457          1.0000   
         C         C         1.0       0.33505787042292196           0.3635310432860274 0.2174177403382579 1.0000   
         C         C         1.0       0.34833942848124283           0.3747239294462102 0.2265558994413697 1.0000   
         C         C         1.0       0.3543730791578991  0.3769988854323709  0.2816469485152071 1.0000   
         C         C         1.0       0.34781199430464227           0.3677671409069674 0.32476880098617933          1.0000   
         C         C         1.0       0.3114284461832089  0.34343415309758585           0.2518240445794276 1.0000   
         C         C         1.0       0.2977102914632465  0.35795224571550016           0.253762081702015  1.0000   
         C         C         1.0       0.29383624542312575           0.36735580445303945          0.20384247226527866          1.0000   
         C         C         1.0       0.282989134134355   0.380458624441256   0.2056476931913239 1.0000   
         C         C         1.0       0.2780480328551782  0.38686056865896506           0.25540137342392305          1.0000   
         C         C         1.0       0.28160637299675945           0.37816589470974293          0.3053928401351397 1.0000   
         C         C         1.0       0.2917071290089749  0.3638348327188995  0.30411430428514585          1.0000   
         C         C         1.0       0.3213488939497605  0.3259513912343612  0.15916109151377217          1.0000   
         C         C         1.0       0.31866310883190346           0.3175892663449778 0.10862981424390093          1.0000   
         C         C         1.0       0.30231627369255953           0.31187765460918443          0.0985884196298874 1.0000   
         C         C         1.0       0.2899229950800681  0.3168372592166701  0.13461670523156588          1.0000   
         C         C         1.0       0.29299089525374256           0.3277081054532312 0.17933592659724756          1.0000   
         C         C         1.0       0.30901987264797615           0.3318005378252635 0.19369574542069673          1.0000   
         C         C         1.0       0.29598606022146895           0.3048042047463524 0.03947462802972557          1.0000   
         C         C         1.0       0.32713099149678987           0.2661362656239723 0.9594600284080858 1.0000   
         C         C         1.0       0.32678545277456916           0.26897969374088765          0.01728622332600893          1.0000   
         C         C         1.0       0.31919363178820537           0.28242201752238005          0.041198775100177665         1.0000   
         C         C         1.0       0.3103721711860504  0.2933378939825398  0.007639745735086079         1.0000   
         C         C         1.0       0.3124610499561826  0.2920863278817231  0.9489410498082509 1.0000   
         C         C         1.0       0.31994266697529017           0.2783333724418069 0.9247474228786232 1.0000   
         C         C         1.0       0.2922610724215938  0.3218199433325463  0.0029552128451166837        1.0000   
         C         C         1.0       0.2769317052724025  0.3287540737239892  0.0014529549027069155        1.0000   
         C         C         1.0       0.2744322836665655  0.3455507866729197  0.9881250222046385 1.0000   
         C         C         1.0       0.28712662367216024           0.3546414506750278 0.9625183414251647 1.0000   
         C         C         1.0       0.30297799374842055           0.34750362585344097          0.9632905493840532 1.0000   
         C         C         1.0       0.30488778027817454           0.33110153352578153          0.9824828499250622 1.0000   
         C         C         1.0       0.273132467252458   0.28804650771459755           0.9865287369129072 1.0000   
         C         C         1.0       0.2657326525884642  0.2728821264917092  0.9781460977766566 1.0000   
         C         C         1.0       0.2646195980621856  0.2613048445365164  0.021207526028535817         1.0000   
         C         C         1.0       0.2708666199807638  0.26484958947427495           0.07203437082745223          1.0000   
         C         C         1.0       0.2795662541820417  0.2792265586169581  0.08262548248984714          1.0000   
         C         C         1.0       0.28197881099571864           0.2909488988054539 0.039071475657845633         1.0000   
         H         H         1.0       0.32878582118024485           0.35081796014436556          0.35172406071047785          1.0000   
         H         H         1.0       0.32932889612317406           0.3641253619645048 0.17779762110619748          1.0000   
         H         H         1.0       0.3519796625499497  0.3826839274925821  0.1922771233017722 1.0000   
         H         H         1.0       0.3537312295967705  0.3686089947933773  0.36811386743027646          1.0000   
         H         H         1.0       0.2990374982321898  0.36339599190045246           0.16245229438913078          1.0000   
         H         H         1.0       0.2808631569405608  0.3850763528593568  0.16131439246356818          1.0000   
         H         H         1.0       0.275036627873971   0.3824630332943455  0.3430902684298016 1.0000   
         H         H         1.0       0.29296295131767064           0.3578953861696249 0.3443932552022194 1.0000   
         H         H         1.0       0.334028823044291   0.33017910233862846           0.16511908599460337          1.0000   
         H         H         1.0       0.3291280800655644  0.3159159513215146  0.0786928083201668 1.0000   
         H         H         1.0       0.2770383725571531  0.312737992892187   0.12890481585984226          1.0000   
         H         H         1.0       0.2832009048590382  0.32878531766176144           0.21198624565291066          1.0000   
         H         H         1.0       0.3323491537125868  0.2586138741103645  0.04296742279466126          1.0000   
         H         H         1.0       0.3183208715670673  0.28282062830980514           0.08733034444258281          1.0000   
         H         H         1.0       0.30759984496600606           0.301103060289967  0.9181907679251554 1.0000   
         H         H         1.0       0.31808599944714594           0.27596198295376445          0.8807684500633778 1.0000   
         H         H         1.0       0.2672580418587759  0.322284069093006   0.024503724102691526         1.0000   
         H         H         1.0       0.2614242693296385  0.3504440971272759  0.9920666736553504 1.0000   
         H         H         1.0       0.314263688252654   0.35520969501891003           0.9513245847633238 1.0000   
         H         H         1.0       0.3177075421643925  0.3278501659880397  0.9913841170797386 1.0000   
         H         H         1.0       0.27437331852694197           0.2960946743289635 0.9510952661678747 1.0000   
         H         H         1.0       0.26111425022260776           0.2697874712521254 0.9368016334591867 1.0000   
         H         H         1.0       0.26997594056678637           0.2556335138697176 0.10376637428440098          1.0000   
         H         H         1.0       0.2860455353452638  0.2806407798023756  0.12033211487275193          1.0000   
         C         C         1.0       0.2850617012507221  0.3745154640138198  0.8452871840585999 1.0000   
         C         C         1.0       0.272900293884411   0.36805061489261615           0.8065172460175741 1.0000   
         C         C         1.0       0.2778381128694326  0.36444381108734236           0.7531607508488406 1.0000   
         C         C         1.0       0.294480455491388   0.36517956284718334           0.7370681861692023 1.0000   
         C         C         1.0       0.3069532428460755  0.3698573475717287  0.7777537498186013 1.0000   
         C         C         1.0       0.3019408567904898  0.3757419871307415  0.8308977862323652 1.0000   
         H         H         1.0       0.26021716692325814           0.36714680597573796          0.8197098858532083 1.0000   
         H         H         1.0       0.2686466895415687  0.3599674577243447  0.7206838251674994 1.0000   
         H         H         1.0       0.3205320518716934  0.3696831460474776  0.7675667347636783 1.0000   
         H         H         1.0       0.31169996315584714           0.38127362271489484          0.8593776997452256 1.0000   
         C         C         1.0       0.3220510146269421  0.3816277873806706  0.6611749370325621 1.0000   
         C         C         1.0       0.31790100732667936           0.36485174850545643          0.6573817054369665 1.0000   
         C         C         1.0       0.33047446945116454           0.35486221612359825          0.634296772683609  1.0000   
         C         C         1.0       0.3463429421598219  0.36077565877104334           0.616822444971664  1.0000   
         C         C         1.0       0.3488606246869024  0.37782841561703123           0.6197917031154693 1.0000   
         C         C         1.0       0.33738548020691383           0.3880176412797997 0.6452981789093156 1.0000   
         C         C         1.0       0.300169783159362   0.35774650883376163           0.6765587884598343 1.0000   
         C         C         1.0       0.2896944689554782  0.36450008698696845           0.6219239759798912 1.0000   
         C         C         1.0       0.29130084790508176           0.3575619037507405 0.5667497756526372 1.0000   
         C         C         1.0       0.28331003637502006           0.3651677527655662 0.5226147680263471 1.0000   
         C         C         1.0       0.27316256207685574           0.3790168349423664 0.5290647503677921 1.0000   
         C         C         1.0       0.27153550650889424           0.386407368138384  0.5816548969563582 1.0000   
         C         C         1.0       0.2794388484932268  0.3785305902872123  0.6277333534126993 1.0000   
         C         C         1.0       0.31280760723471757           0.32897516108228236          0.7205239118065909 1.0000   
         C         C         1.0       0.3148744507490706  0.3118971467085177  0.7143412867663016 1.0000   
         C         C         1.0       0.3054571935891583  0.30295906952731116           0.6769338136050874 1.0000   
         C         C         1.0       0.2918295214337702  0.3110302166191143  0.6508919040881141 1.0000   
         C         C         1.0       0.28913533843272593           0.3274062939046277 0.6600982418526238 1.0000   
         C         C         1.0       0.3004298095309142  0.33769038105159577           0.689921368751575  1.0000   
         C         C         1.0       0.3124768941465113  0.28510189659760354           0.6543341735859439 1.0000   
         C         C         1.0       0.3679499866177551  0.27766773753850615           0.6470063533323299 1.0000   
         C         C         1.0       0.35755874860307163           0.2644810436205368 0.6619396849094452 1.0000   
         C         C         1.0       0.3404738703798811  0.2670918091695603  0.6658802460100783 1.0000   
         C         C         1.0       0.3333591627919091  0.2827713915684334  0.6605501976701462 1.0000   
         C         C         1.0       0.34369780433131697           0.2960708004803522 0.6489230501484036 1.0000   
         C         C         1.0       0.36067771697401524           0.29359420807275594          0.6432417417109274 1.0000   
         C         C         1.0       0.30966894664840755           0.2821370827802987 0.5903203187275187 1.0000   
         C         C         1.0       0.3066161143230211  0.26553397424706854           0.5718427454070678 1.0000   
         C         C         1.0       0.30741612940470286           0.2624549171643711 0.5140139977680112 1.0000   
         C         C         1.0       0.31243104518613424           0.2750725277651877 0.4759235666870576 1.0000   
         C         C         1.0       0.3156417152245864  0.29081058144157346           0.4955286882166459 1.0000   
         C         C         1.0       0.3138849977619246  0.29447489319386916           0.5508303426603175 1.0000   
         C         C         1.0       0.28394494770651646           0.2690824563192876 0.6800180397934682 1.0000   
         C         C         1.0       0.27486897928555953           0.2568930594383612 0.7093668247895015 1.0000   
         C         C         1.0       0.2822971482783608  0.24890468363049953           0.7538322514835348 1.0000   
         C         C         1.0       0.29845297645382446           0.25245650329766833          0.7691854848482315 1.0000   
         C         C         1.0       0.3067971305447292  0.26473914552811134           0.7420506166231976 1.0000   
         C         C         1.0       0.3010178814877053  0.27259011562388397           0.6938848361246651 1.0000   
         H         H         1.0       0.3128999370623986  0.3904639918283191  0.6768373070751316 1.0000   
         H         H         1.0       0.32756740541293894           0.34177687601345036          0.6316999414354676 1.0000   
         H         H         1.0       0.35689956562137326           0.3538779092721049 0.5992663508689968 1.0000   
         H         H         1.0       0.33838071895505595           0.4015736866902729 0.6502428140619693 1.0000   
         H         H         1.0       0.3005212691397171  0.34786110744771787           0.5596729189977167 1.0000   
         H         H         1.0       0.28467482751547213           0.35849144572810154          0.4832997248477609 1.0000   
         H         H         1.0       0.264057961603867   0.39780812011958017           0.5899770647348552 1.0000   
         H         H         1.0       0.27867093565283135           0.3858065640365413 0.6653374978677036 1.0000   
         H         H         1.0       0.32400966238422285           0.3344725408878591 0.73627582193888   1.0000   
         H         H         1.0       0.3262609414178706  0.30612380888675317           0.7351061770967761 1.0000   
         H         H         1.0       0.2837940643467363  0.3039185846171737  0.6210222264156968 1.0000   
         H         H         1.0       0.2793315599504532  0.3332300700848393  0.6349954500629744 1.0000   
         H         H         1.0       0.36335277774735975           0.25207710042810183          0.6624349463543395 1.0000   
         H         H         1.0       0.33184707761243526           0.25634461323219987          0.6712360991036664 1.0000   
         H         H         1.0       0.33829286888111176           0.30798573405693064          0.6400280959661986 1.0000   
         H         H         1.0       0.36900095238451963           0.3040698522938725 0.6301849427210675 1.0000   
         H         H         1.0       0.30598376247111503           0.25504725739755085          0.5997688591242853 1.0000   
         H         H         1.0       0.3042550107016065  0.2501523064536149  0.502567987887625  1.0000   
         H         H         1.0       0.31890069284051265           0.30133088021282556          0.46814471645927097          1.0000   
         H         H         1.0       0.31501237499015666           0.30763142012244177          0.5644903593735539 1.0000   
         H         H         1.0       0.2781891794249366  0.2730784327125552  0.6390907917153101 1.0000   
         H         H         1.0       0.26243217473881764           0.25239498455317994          0.69299184557846   1.0000   
         H         H         1.0       0.3034384763523152  0.24602883035488649           0.8061138638567528 1.0000   
         H         H         1.0       0.3178831128863508  0.26837976910792133           0.763086279351608  1.0000   
         C         C         1.0       0.2687406555824411  0.42806574514037776           0.19616016869027683          1.0000   
         C         C         1.0       0.2606112581960111  0.44350432123067524           0.19741621410131904          1.0000   
         C         C         1.0       0.26969279934454987           0.4573270959730602 0.18149678311753584          1.0000   
         C         C         1.0       0.2868454114229012  0.456179298648258   0.16603294971589638          1.0000   
         C         C         1.0       0.29389225098546756           0.4403160361287294 0.1620406977193739 1.0000   
         C         C         1.0       0.28518125864829036           0.42604739429546196          0.1809177560111746 1.0000   
         H         H         1.0       0.2469849498709335  0.44314531401809654           0.205481010675428  1.0000   
         H         H         1.0       0.2626856507324441  0.46886203083620986           0.17754538887083723          1.0000   
         H         H         1.0       0.3068145051271536  0.4377638240162847  0.1449911032732704 1.0000   
         H         H         1.0       0.2911127703227916  0.41368864876124173           0.17788519899868688          1.0000   
         C         C         1.0       0.3220971471346908  0.46168542055432304           0.21864246672969698          1.0000   
         C         C         1.0       0.31591464652995616           0.47359869385560993          0.17983996971760016          1.0000   
         C         C         1.0       0.3277497907545445  0.48473310847892637           0.15781430515157083          1.0000   
         C         C         1.0       0.3444677548719956  0.4842190877399902  0.17369112513067805          1.0000   
         C         C         1.0       0.3505763988692125  0.4720932275600571  0.21235617474440482          1.0000   
         C         C         1.0       0.3391326822191523  0.460804651909787   0.2335970499940161 1.0000   
         C         C         1.0       0.29705340990944656           0.47294120032535797          0.15968695810785785          1.0000   
         C         C         1.0       0.29094902773429304           0.489083768111402  0.1982323300328707 1.0000   
         C         C         1.0       0.29000144557428037           0.5049541924319647 0.17757264427151545          1.0000   
         C         C         1.0       0.28667007723429283           0.5186098419662742 0.21263926634763086          1.0000   
         C         C         1.0       0.28445827271597046           0.5165861270661714 0.26981265706692714          1.0000   
         C         C         1.0       0.2865633472771725  0.5008563262834972  0.29288937664869086          1.0000   
         C         C         1.0       0.2891541595238783  0.48738944395631756           0.25865675691332063          1.0000   
         C         C         1.0       0.3067281178977404  0.46881090620530436           0.05575881361148216          1.0000   
         C         C         1.0       0.305460516152758   0.4724333557514591  0.9995882585590423 1.0000   
         C         C         1.0       0.2936219005826105  0.4832931719722749  0.9792212014012298 1.0000   
         C         C         1.0       0.2804747156911946  0.48714321784316683           0.01393091101757804          1.0000   
         C         C         1.0       0.2806735141756038  0.48260927060959147           0.0685603402932673 1.0000   
         C         C         1.0       0.2945971028932908  0.4755333938433851  0.09284808332519967          1.0000   
         C         C         1.0       0.2938626518307613  0.4889407550176549  0.9147499900510563 1.0000   
         C         C         1.0       0.3451163266733581  0.4979536569166438  0.8507929767618676 1.0000   
         C         C         1.0       0.33231594014230514           0.49458521447304404          0.813897428789497  1.0000   
         C         C         1.0       0.31574620976632045           0.49223409006913244          0.8307380544132831 1.0000   
         C         C         1.0       0.3120964271741702  0.49201930121632137           0.8891039876197986 1.0000   
         C         C         1.0       0.3258425089366729  0.4964283763533341  0.9246369259724132 1.0000   
         C         C         1.0       0.341911135660025   0.49971807631307863           0.9070578701195167 1.0000   
         C         C         1.0       0.28691976886047477           0.5076174472543626 0.9059768517093835 1.0000   
         C         C         1.0       0.2913959140806842  0.5206208054411418  0.9399025206322069 1.0000   
         C         C         1.0       0.28691944093176536           0.5366921614322716 0.9262761463943661 1.0000   
         C         C         1.0       0.2759078744385855  0.5405124217079181  0.8827856115938039 1.0000   
         C         C         1.0       0.27075309195196334           0.5273570027868721 0.8460260231124654 1.0000   
         C         C         1.0       0.2769316814962138  0.5115359870975883  0.8575509970998341 1.0000   
         C         C         1.0       0.26683738062915024           0.4726231179210133 0.8839990402721282 1.0000   
         C         C         1.0       0.25831939763320794           0.45861931701889197          0.8660240207178189 1.0000   
         C         C         1.0       0.2669669198134694  0.44492330962749416           0.8482982981212469 1.0000   
         C         C         1.0       0.28435277728412345           0.44520806964078097          0.846586408937834  1.0000   
         C         C         1.0       0.2934604269440742  0.4588882093079892  0.866710658524812  1.0000   
         C         C         1.0       0.28392485434704423           0.47344199271162096          0.8846195087626697 1.0000   
         H         H         1.0       0.3151809203303776  0.45128882557960803           0.23763924955308652          1.0000   
         H         H         1.0       0.32365003900451117           0.49358531495276564          0.12682276286789745          1.0000   
         H         H         1.0       0.35357885840312936           0.49310143954577484          0.16240644954278338          1.0000   
         H         H         1.0       0.3425869145834041  0.45052980443642404           0.2610872755905682 1.0000   
         H         H         1.0       0.2936850322133752  0.5078825416276246  0.13479748657928306          1.0000   
         H         H         1.0       0.28598723448574104           0.5298831972107406 0.18937872234531647          1.0000   
         H         H         1.0       0.2826098448991139  0.4997367627709221  0.33748641578683153          1.0000   
         H         H         1.0       0.2890541555767855  0.47421972980715427           0.27315835576429043          1.0000   
         H         H         1.0       0.3165406001151582  0.46108816452370155           0.07165174330543644          1.0000   
         H         H         1.0       0.3149754192472183  0.4663370475499829  0.9730490362208529 1.0000   
         H         H         1.0       0.2714014839941207  0.4953971443106268  0.999947506746007  1.0000   
         H         H         1.0       0.2716351833090396  0.4887309051302775  0.09732359928032719          1.0000   
         H         H         1.0       0.33482723182782204           0.4923288089685667 0.768739529052917  1.0000   
         H         H         1.0       0.30587804839412125           0.48959730588409545          0.8008567220871926 1.0000   
         H         H         1.0       0.32513120608046275           0.49717650068096797          0.9705208502920151 1.0000   
         H         H         1.0       0.35200010447613894           0.5014524354333907 0.9399908768231642 1.0000   
         H         H         1.0       0.29994574778052013           0.5193083172694205 0.9746083149865985 1.0000   
         H         H         1.0       0.29355879193037787           0.5468857776825004 0.9500505204136004 1.0000   
         H         H         1.0       0.26087517016965717           0.5307204141892038 0.8133337988054344 1.0000   
         H         H         1.0       0.27204979992854394           0.5009661911217533 0.8335467919478046 1.0000   
         H         H         1.0       0.2602375796982274  0.48291105174997856           0.9031728057816444 1.0000   
         H         H         1.0       0.24465712978070409           0.4589162305168701 0.8718820478264675 1.0000   
         H         H         1.0       0.2920983622532381  0.4347331922503756  0.8287740344176838 1.0000   
         H         H         1.0       0.3068823277511508  0.459249948456741   0.8696300679401027 1.0000   
         C         C         1.0       0.2913971408669898  0.40948663537451835           0.4825724948207247 1.0000   
         C         C         1.0       0.2808089922151353  0.42262513127250884           0.4936244569185955 1.0000   
         C         C         1.0       0.2858801677133557  0.4340645043676454  0.536728375830659  1.0000   
         C         C         1.0       0.3008437512784222  0.4326209466735075  0.5644604176736339 1.0000   
         C         C         1.0       0.3109315277632803  0.4186090050768391  0.5508420521386135 1.0000   
         C         C         1.0       0.30684035657899705           0.40774533559230475          0.5091609648392169 1.0000   
         H         H         1.0       0.26805797553667265           0.42388389761956946          0.47630103147370423          1.0000   
         H         H         1.0       0.2775518860316643  0.44452786345189815           0.542729559798428  1.0000   
         H         H         1.0       0.322483936795793   0.4168180353860952  0.5753166278843709 1.0000   
         H         H         1.0       0.3146552070258115  0.3966971729425919  0.4987240776200908 1.0000   
         C         C         1.0       0.32887735530828127           0.45114299940664787          0.6916534916915232 1.0000   
         C         C         1.0       0.32457673038272505           0.44635431165432005          0.6370002040960682 1.0000   
         C         C         1.0       0.33765639175505674           0.4458082549318954 0.5987520051484063 1.0000   
         C         C         1.0       0.35430410343568347           0.4478277341292919 0.6141003554108662 1.0000   
         C         C         1.0       0.3581867808255089  0.45126900660884794           0.6709144790618823 1.0000   
         C         C         1.0       0.34531477768423585           0.4517818300139539 0.7090527805999116 1.0000   
         C         C         1.0       0.30542204052616906           0.4447735352199264 0.6164927053249054 1.0000   
         C         C         1.0       0.2930182325234881  0.4362494812333988  0.6633465289899257 1.0000   
         C         C         1.0       0.2765495978893235  0.44141675013195564           0.6698794728662761 1.0000   
         C         C         1.0       0.2657097770168284  0.4340701243483932  0.7098778741615246 1.0000   
         C         C         1.0       0.2711452301472421  0.4212194694843108  0.7427098787626707 1.0000   
         C         C         1.0       0.2870905992949308  0.4160542965609821  0.7355219427601616 1.0000   
         C         C         1.0       0.29803713290956413           0.42285291749322035          0.6954328722181033 1.0000   
         C         C         1.0       0.3054654508080642  0.47056257311772964           0.5548934304178186 1.0000   
         C         C         1.0       0.3073822568801098  0.4871644140332464  0.5482392231460501 1.0000   
         C         C         1.0       0.30360553925994693           0.4988721649105911 0.5893413164577177 1.0000   
         C         C         1.0       0.2973557050105026  0.4926900240453688  0.639637559679045  1.0000   
         C         C         1.0       0.2973849808100562  0.47559009841335975           0.6499858202264537 1.0000   
         C         C         1.0       0.30193565330791794           0.46416275033113075          0.6060243922607533 1.0000   
         C         C         1.0       0.30663909981788545           0.5186703425830307 0.5787645876431503 1.0000   
         C         C         1.0       0.3595179027703901  0.5150640516341841  0.629316651330722  1.0000   
         C         C         1.0       0.3551300604189915  0.5162659641428056  0.5746063798394512 1.0000   
         C         C         1.0       0.3386590125286476  0.5174240472050577  0.5574779632114494 1.0000   
         C         C         1.0       0.3262384198980522  0.520172609750839   0.5985932280034161 1.0000   
         C         C         1.0       0.33069239488968977           0.5206997585850981 0.6541650646869528 1.0000   
         C         C         1.0       0.34719842842879894           0.516406707310853  0.6708886972095317 1.0000   
         C         C         1.0       0.2935736319301254  0.5304586221185441  0.6122420163140679 1.0000   
         C         C         1.0       0.27680811024707996           0.5266805693307933 0.6237388565563039 1.0000   
         C         C         1.0       0.2674936294375194  0.5380409476939654  0.6555899068359539 1.0000   
         C         C         1.0       0.27453597011351893           0.5522133039738166 0.6759244822737072 1.0000   
         C         C         1.0       0.29047877031475805           0.5570826211050722 0.6589503001974732 1.0000   
         C         C         1.0       0.29990722819036664           0.5459108090904248 0.6297578151445278 1.0000   
         C         C         1.0       0.31041196666009724           0.5381849355360879 0.49109868964730785          1.0000   
         C         C         1.0       0.3078323592232096  0.5411435624406221  0.4345448704168421 1.0000   
         C         C         1.0       0.29469163508970303           0.5336706434022651 0.4055098641651447 1.0000   
         C         C         1.0       0.28506136065766763           0.5210972836710352 0.43125938668390856          1.0000   
         C         C         1.0       0.2882722062798245  0.5181151941952585  0.48768907850972143          1.0000   
         C         C         1.0       0.3016868138942273  0.5248442659639     0.5154916489859381 1.0000   
         H         H         1.0       0.3198121987197008  0.4532724889100361  0.7274355059212123 1.0000   
         H         H         1.0       0.3344234592746463  0.4442294964082639  0.5570587585520517 1.0000   
         H         H         1.0       0.3629634598229016  0.4474715399637156  0.5807922032384604 1.0000   
         H         H         1.0       0.3474368233816037  0.4544094290815647  0.7515059234895061 1.0000   
         H         H         1.0       0.2726921971045143  0.4512796999206293  0.6424769500715437 1.0000   
         H         H         1.0       0.25248398236845365           0.43724657459633015          0.7122147273527925 1.0000   
         H         H         1.0       0.29207575256251117           0.40546713399555573          0.7594011000157586 1.0000   
         H         H         1.0       0.3111563009985606  0.4179704970558511  0.6906943445183326 1.0000   
         H         H         1.0       0.3084811032594073  0.461689019050944   0.5222907297902522 1.0000   
         H         H         1.0       0.3148194201892662  0.49180582443552995           0.5119929659244249 1.0000   
         H         H         1.0       0.29338555205253775           0.5011628371643403 0.6761686745837748 1.0000   
         H         H         1.0       0.2940472782295513  0.47026527583328515           0.6892451603814316 1.0000   
         H         H         1.0       0.36432647109591704           0.5145698362335664 0.5416883976441699 1.0000   
         H         H         1.0       0.33485402606137193           0.5159697077427545 0.5149882701705709 1.0000   
         H         H         1.0       0.3213925358730401  0.5218515794859568  0.6879202222448085 1.0000   
         H         H         1.0       0.34812585485653286           0.5145132467246896 0.7155207265050542 1.0000   
         H         H         1.0       0.270081136840774   0.515181560373848   0.6121884473758467 1.0000   
         H         H         1.0       0.2550751382052176  0.5351730308078944  0.6679847044956373 1.0000   
         H         H         1.0       0.2975988755690493  0.5679479370119027  0.6721516057220156 1.0000   
         H         H         1.0       0.312455126410017   0.5497585260970647  0.6206738108433086 1.0000   
         H         H         1.0       0.31846139375394533           0.545346731342382  0.5164751669408053 1.0000   
         H         H         1.0       0.31494168676719536           0.5513457307826718 0.41471263514227485          1.0000   
         H         H         1.0       0.2742888880102188  0.515649587580029   0.4114963196121244 1.0000   
         H         H         1.0       0.2805191994325836  0.5078825081969539  0.5071060040227758 1.0000   
         C         C         1.0       0.44048052290930034           0.3131050128916051 0.13656590566097937          1.0000   
         C         C         1.0       0.4556922089353437  0.3209343806472474  0.15430652085897859          1.0000   
         C         C         1.0       0.45620440024099007           0.33121036413033556          0.20150032470887058          1.0000   
         C         C         1.0       0.4416422253738285  0.33469513076145657           0.23002101915351694          1.0000   
         C         C         1.0       0.42685476312278253           0.3275185107072629 0.21047580333292878          1.0000   
         C         C         1.0       0.42611381709415563           0.3179760253048468 0.16167808774071243          1.0000   
         H         H         1.0       0.4677940450299301  0.3200663700219713  0.1312230900549975 1.0000   
         H         H         1.0       0.4689424723514949  0.3370701327807422  0.21385086705369613          1.0000   
         H         H         1.0       0.41516895344973126           0.33077467570956637          0.22937311187876475          1.0000   
         H         H         1.0       0.41352245090496526           0.313284783677075  0.1460000028166157 1.0000   
         C         C         1.0       0.41427829425171153           0.36382542629609244          0.25222961379435227          1.0000   
         C         C         1.0       0.42407636122194786           0.3571485274852617 0.29550277095015404          1.0000   
         C         C         1.0       0.41936980289592246           0.36195379308363207          0.35069798263425245          1.0000   
         C         C         1.0       0.40489571558081405           0.369827169526051  0.36104051726392233          1.0000   
         C         C         1.0       0.3955447271938663  0.3770495630747411  0.3170581114033659 1.0000   
         C         C         1.0       0.3995390643420389  0.37208993664036993           0.2633718263125722 1.0000   
         C         C         1.0       0.44047995573000537           0.34614725898987675          0.28618733985191813          1.0000   
         C         C         1.0       0.4531263430204322  0.36190003092578754           0.28565344592475594          1.0000   
         C         C         1.0       0.4618272741598747  0.36595008969152204           0.33607499523087453          1.0000   
         C         C         1.0       0.47384428442005433           0.37771151714146484          0.3348247208274861 1.0000   
         C         C         1.0       0.4761810164792803  0.38742880999245943           0.28764183863950266          1.0000   
         C         C         1.0       0.46670378791171346           0.3849354108050665 0.2400753593686944 1.0000   
         C         C         1.0       0.4550549979616988  0.3719275535785586  0.23910081582436243          1.0000   
         C         C         1.0       0.43115608034912584           0.3223801471516474 0.3509938121474118 1.0000   
         C         C         1.0       0.4343460388271219  0.311579510596518   0.3944303111984332 1.0000   
         C         C         1.0       0.4504046710155337  0.30987685334374704           0.41669333517629936          1.0000   
         C         C         1.0       0.46323583964354414           0.31714523753451745          0.3859159483385685 1.0000   
         C         C         1.0       0.4601215099518512  0.32810438385480334           0.34403036407131427          1.0000   
         C         C         1.0       0.4435729651022197  0.3323232118149313  0.32998327262264765          1.0000   
         C         C         1.0       0.4541261716798472  0.2971584039564588  0.47043125120426693          1.0000   
         C         C         1.0       0.4080560585488666  0.28013175332322665           0.5489746376093381 1.0000   
         C         C         1.0       0.4211887802106338  0.2692261695634244  0.5432585212785034 1.0000   
         C         C         1.0       0.4365440817020335  0.2746627152680999  0.5265007552128232 1.0000   
         C         C         1.0       0.4387052394923968  0.29147535532807856           0.5063696572559525 1.0000   
         C         C         1.0       0.4261325393159587  0.3030344921655589  0.518816185400287  1.0000   
         C         C         1.0       0.4104737989264745  0.29718914656692863           0.5345856217753109 1.0000   
         C         C         1.0       0.4638987393963625  0.30660849472322566           0.5196435886455736 1.0000   
         C         C         1.0       0.4673849221315141  0.324012576673407   0.5240975959791525 1.0000   
         C         C         1.0       0.47799891171597136           0.3308458494068785 0.5646246016171732 1.0000   
         C         C         1.0       0.4846596996094614  0.3204887090241034  0.6050718272642278 1.0000   
         C         C         1.0       0.48101069828501536           0.3037245841266129 0.6035565121763314 1.0000   
         C         C         1.0       0.47134374510421956           0.29674277934046006          0.5604398468816857 1.0000   
         C         C         1.0       0.4816144079273082  0.2814223492629343  0.437158713232149  1.0000   
         C         C         1.0       0.48965185385692667           0.2696374269828278 0.4058224227646099 1.0000   
         C         C         1.0       0.4803121971112942  0.25758020182887964           0.37718947472561953          1.0000   
         C         C         1.0       0.46324064511506885           0.25901407231408047          0.3764890575375884 1.0000   
         C         C         1.0       0.45564187693537117           0.2722422100316751 0.4047974195047888 1.0000   
         C         C         1.0       0.4639864834044855  0.2823584309483426  0.43912922439571334          1.0000   
         H         H         1.0       0.4180807547349369  0.3626678062253213  0.20881797848207728          1.0000   
         H         H         1.0       0.4266900820599913  0.3568288329393089  0.38588454234718095          1.0000   
         H         H         1.0       0.4016766669295311  0.3711007109314808  0.40471375052895875          1.0000   
         H         H         1.0       0.39096298036658234           0.37578582938364397          0.2304901923110215 1.0000   
         H         H         1.0       0.4587000663831825  0.35995422643136404           0.3763777953188788 1.0000   
         H         H         1.0       0.48175382748370527           0.3788179861377547 0.3718379408208824 1.0000   
         H         H         1.0       0.4674581304628383  0.3940944547383543  0.20731338958717435          1.0000   
         H         H         1.0       0.4486995219581727  0.3685847629285149  0.20146190306834802          1.0000   
         H         H         1.0       0.4174010899890232  0.3233062050671488  0.33953881306586886          1.0000   
         H         H         1.0       0.4237557215493552  0.3038734432468529  0.41082027300330615          1.0000   
         H         H         1.0       0.47651649655589395           0.3169820593293665 0.39928120978477727          1.0000   
         H         H         1.0       0.47106861427213964           0.3345376763423638 0.3243245566387217 1.0000   
         H         H         1.0       0.41874977750762665           0.2557919700899307 0.5573391245046403 1.0000   
         H         H         1.0       0.4453751164912976  0.264380951708192   0.522576676341468  1.0000   
         H         H         1.0       0.4275298387774513  0.3163495578987244  0.5052804556006795 1.0000   
         H         H         1.0       0.4002465040229143  0.305358029752188   0.5379455391746275 1.0000   
         H         H         1.0       0.4637365003563622  0.3321111565695316  0.49111643423345486          1.0000   
         H         H         1.0       0.48074982822122003           0.3440507668356787 0.5591074823695908 1.0000   
         H         H         1.0       0.4868031322607629  0.2955302556276445  0.6350662446848275 1.0000   
         H         H         1.0       0.4703998017959367  0.2833701221537998  0.5585294199107831 1.0000   
         H         H         1.0       0.4883696815532998  0.29075583423726914           0.45961696535383895          1.0000   
         H         H         1.0       0.5041944538108716  0.2698119278188495  0.4082565244362776 1.0000   
         H         H         1.0       0.45610015390214176           0.25037438180175514          0.35223034105041706          1.0000   
         H         H         1.0       0.442435710654681   0.2752165416780531  0.39981539785625486          1.0000   
         C         C         1.0       0.4768736454311708  0.3478509120586736  0.7027349533818994 1.0000   
         C         C         1.0       0.47191051275055207           0.33823465555459153          0.7476965742193569 1.0000   
         C         C         1.0       0.45508690086524467           0.33760057347153605          0.763240020693133  1.0000   
         C         C         1.0       0.44283140415525957           0.34739718864746566          0.7360598267280708 1.0000   
         C         C         1.0       0.44888434070887767           0.35816637500269405          0.6944380059660837 1.0000   
         C         C         1.0       0.465743564461548   0.3585546844525794  0.677747059020578  1.0000   
         H         H         1.0       0.4806936847856017  0.33013729278450976           0.7694124264475994 1.0000   
         H         H         1.0       0.4508225157781548  0.3296665628845308  0.7991001153352598 1.0000   
         H         H         1.0       0.4407446035133527  0.36733473666911176           0.6730855570455795 1.0000   
         H         H         1.0       0.4708261238296564  0.36570059515087466           0.641288177758102  1.0000   
         C         C         1.0       0.4091578597888618  0.35775528432729836           0.6610383650808942 1.0000   
         C         C         1.0       0.41097195320516544           0.3591915790148364 0.7198530268812039 1.0000   
         C         C         1.0       0.3982324623729403  0.3686135108300741  0.745957812464307  1.0000   
         C         C         1.0       0.3872809504900149  0.37784024876385924           0.7166539679029018 1.0000   
         C         C         1.0       0.387914699356673   0.3778461351284571  0.6579235811991727 1.0000   
         C         C         1.0       0.39825587023752995           0.36662608394718155          0.6304158783569752 1.0000   
         C         C         1.0       0.4235000054848269  0.3474860955433912  0.7575009684111883 1.0000   
         C         C         1.0       0.42555223212893767           0.35541891431342665          0.8228382318045674 1.0000   
         C         C         1.0       0.42737293401541787           0.34564656959213014          0.8727178915594404 1.0000   
         C         C         1.0       0.43248853477963634           0.353361206103076  0.9212554569273881 1.0000   
         C         C         1.0       0.4397073732152814  0.3687029076056292  0.9208757905975306 1.0000   
         C         C         1.0       0.440899367281274   0.3778049239862302  0.8715482122838926 1.0000   
         C         C         1.0       0.4323463698949165  0.3713072492673433  0.8254449788651013 1.0000   
         C         C         1.0       0.40021150968976    0.32665158632194685           0.782275396638795  1.0000   
         C         C         1.0       0.3948071600853454  0.3104241822504523  0.7970694268876827 1.0000   
         C         C         1.0       0.40582866649359856           0.2970625956371672 0.7920195052557861 1.0000   
         C         C         1.0       0.42010401689721166           0.29920737585630536          0.756953417277193  1.0000   
         C         C         1.0       0.42358746964054705           0.31509122956244207          0.737050359203929  1.0000   
         C         C         1.0       0.41568401846507186           0.32940290463265753          0.7581319335725298 1.0000   
         C         C         1.0       0.40545548447066854           0.2825410639790545 0.8341805248933498 1.0000   
         C         C         1.0       0.3577914076882725  0.2572873057582507  0.8676812961081137 1.0000   
         C         C         1.0       0.36056996015299014           0.26485861219771145          0.8186533810906003 1.0000   
         C         C         1.0       0.3750482122063188  0.27366576604205217           0.8083558850535559 1.0000   
         C         C         1.0       0.38763158699636524           0.27484457161919157          0.8494416535220009 1.0000   
         C         C         1.0       0.3842760318009489  0.2668999042441855  0.8997137773544547 1.0000   
         C         C         1.0       0.36967896821298546           0.2580649645119485 0.9106232897876805 1.0000   
         C         C         1.0       0.4144371790537294  0.29197515489838244           0.8862127602591242 1.0000   
         C         C         1.0       0.43226079009225515           0.29271828291588764          0.8914335432608241 1.0000   
         C         C         1.0       0.440168663801656   0.2985008076537247  0.9382438467432999 1.0000   
         C         C         1.0       0.43059149887187237           0.3074226857377916 0.9788258204435545 1.0000   
         C         C         1.0       0.41347788109920963           0.30899378261597427          0.969083756408614  1.0000   
         C         C         1.0       0.4053510126884245  0.3002907905571821  0.9278582010976024 1.0000   
         C         C         1.0       0.4224784750566761  0.25507192612928364           0.8555926498105741 1.0000   
         C         C         1.0       0.43182182875242814           0.24130136935820748          0.8424472754192348 1.0000   
         C         C         1.0       0.43117978382115574           0.2352321141550618 0.7887185112254185 1.0000   
         C         C         1.0       0.4219276927126441  0.24427878464325692           0.7456748699319528 1.0000   
         C         C         1.0       0.41534874791844156           0.2597297613697041 0.7580309514061147 1.0000   
         C         C         1.0       0.41537468567617797           0.2655462456588827 0.813413706729243  1.0000   
         H         H         1.0       0.41743633054563867           0.3488192280288188 0.6380732492248129 1.0000   
         H         H         1.0       0.39794040126415176           0.3684172418713803 0.7932853624261865 1.0000   
         H         H         1.0       0.37798712080554314           0.38527041986188615          0.736976524284892  1.0000   
         H         H         1.0       0.39950585757339513           0.36518858027932005          0.5847927891970068 1.0000   
         H         H         1.0       0.42543721586078365           0.3325012058674799 0.8726072918728383 1.0000   
         H         H         1.0       0.43563747076277737           0.3452570816537847 0.9564454159567842 1.0000   
         H         H         1.0       0.44908921420181763           0.3889185754699139 0.8707975554725957 1.0000   
         H         H         1.0       0.43110100915772526           0.37839272484484476          0.7865880967107597 1.0000   
         H         H         1.0       0.3917572552399131  0.3366626127453084  0.7967364320402458 1.0000   
         H         H         1.0       0.3833041525473268  0.3098060611058051  0.8196331662602566 1.0000   
         H         H         1.0       0.4292780837037899  0.28991725875646657           0.7476069455684465 1.0000   
         H         H         1.0       0.4344963943645396  0.3151112391104818  0.7091403833959579 1.0000   
         H         H         1.0       0.34987020602292496           0.2635776869070581 0.7886866881480007 1.0000   
         H         H         1.0       0.3768025498513543  0.28051333749532675           0.7690214766448425 1.0000   
         H         H         1.0       0.39330762350619647           0.26551400849628964          0.9313731262173233 1.0000   
         H         H         1.0       0.3672568410945935  0.2516743157652601  0.9505666324589257 1.0000   
         H         H         1.0       0.43926679028044313           0.28578402457618096          0.8610587318445004 1.0000   
         H         H         1.0       0.4535594802088514  0.2962755037342436  0.9465367343306259 1.0000   
         H         H         1.0       0.40576224461660726           0.31606729971243264          0.9976018507636865 1.0000   
         H         H         1.0       0.39130799618345075           0.3017955114781032 0.9258685684690824 1.0000   
         H         H         1.0       0.42402291874777154           0.2579333962056655 0.8982759434710205 1.0000   
         H         H         1.0       0.4384663335427789  0.2344483315590974  0.8757946136623976 1.0000   
         H         H         1.0       0.42260060883981543           0.24057814485055468          0.7023763533650637 1.0000   
         H         H         1.0       0.40856401925989716           0.2658169980347051 0.7248979992508625 1.0000   
         C         C         1.0       0.47984533957335757           0.42839390967176055          0.3194425881160408 1.0000   
         C         C         1.0       0.4871211130116274  0.4416538416171262  0.2929049121451217 1.0000   
         C         C         1.0       0.47816311689567725           0.4554100882393132 0.27944366901078566          1.0000   
         C         C         1.0       0.4607544594371557  0.4568380004149061  0.2887807489642731 1.0000   
         C         C         1.0       0.45322281716487417           0.44300019123853784          0.31308560832285715          1.0000   
         C         C         1.0       0.4626238782162593  0.4288335461081511  0.32864113229958075          1.0000   
         H         H         1.0       0.5007746205435928  0.44278105734561163           0.28434056927979384          1.0000   
         H         H         1.0       0.48545361398811027           0.4658141524166734 0.2638956708778275 1.0000   
         H         H         1.0       0.4393776481438128  0.44192416886906866           0.3161197443987449 1.0000   
         H         H         1.0       0.45584557240606044           0.41824532346999566          0.3429489789814592 1.0000   
         C         C         1.0       0.42716697211930843           0.4630410689611929 0.22246671679593394          1.0000   
         C         C         1.0       0.4315354177621943  0.47430363624241684           0.26387261752904045          1.0000   
         C         C         1.0       0.4198530012239661  0.4865064186550659  0.2792424195612441 1.0000   
         C         C         1.0       0.4040136595012331  0.4875300763915629  0.25242357736492244          1.0000   
         C         C         1.0       0.4000690543927716  0.4758678694474218  0.2125607840240238 1.0000   
         C         C         1.0       0.4116144930183298  0.4636096199297563  0.19880274967021802          1.0000   
         C         C         1.0       0.4506637143949065  0.47458577737391355           0.2866936295099539 1.0000   
         C         C         1.0       0.4584398563935225  0.4895013084095052  0.2472883306306626 1.0000   
         C         C         1.0       0.46080291444757143           0.5059367009262077 0.26534522150281215          1.0000   
         C         C         1.0       0.4655550825767172  0.5178887272408438  0.22944957735723343          1.0000   
         C         C         1.0       0.4706569611691351  0.5139320522056938  0.1744555528344925 1.0000   
         C         C         1.0       0.4685983146347533  0.49801622493127445           0.15518259227504663          1.0000   
         C         C         1.0       0.4631885790911473  0.4858725223180016  0.1921453179063776 1.0000   
         C         C         1.0       0.4380459205319925  0.47707354095355714           0.3906161613478148 1.0000   
         C         C         1.0       0.43942957036515046           0.48033212606187087          0.44785010712079254          1.0000   
         C         C         1.0       0.4539302863002509  0.48800075018284694           0.4680569680983676 1.0000   
         C         C         1.0       0.4682878071479702  0.4877143830887248  0.43506657606772847          1.0000   
         C         C         1.0       0.46736359670734046           0.4827320827285401 0.3781621475061714 1.0000   
         C         C         1.0       0.4518005687158101  0.4788660017156034  0.35405652972588336          1.0000   
         C         C         1.0       0.4542866098524983  0.4946386440111033  0.5328252426179593 1.0000   
         C         C         1.0       0.4078467855443818  0.5140329575894301  0.6113245632225882 1.0000   
         C         C         1.0       0.4198977931391204  0.5061596341537925  0.645937138076685  1.0000   
         C         C         1.0       0.4344458992943373  0.49860780991434545           0.6203937045196252 1.0000   
         C         C         1.0       0.4372299433765154  0.4999666646931546  0.5628407202628689 1.0000   
         C         C         1.0       0.4266540841700598  0.5106705746754115  0.5314129700133106 1.0000   
         C         C         1.0       0.4118615120186541  0.5171425877570391  0.5552494466949822 1.0000   
         C         C         1.0       0.4651404160921659  0.5109333368916424  0.5413008188944046 1.0000   
         C         C         1.0       0.46433200652533263           0.5238441935865634 0.503086813651164  1.0000   
         C         C         1.0       0.4748434983558205  0.5373538913694802  0.5085537366511921 1.0000   
         C         C         1.0       0.48379316321781746           0.53981132949671   0.5557474574182983 1.0000   
         C         C         1.0       0.4828877004154872  0.5279437043876735  0.5996438179234418 1.0000   
         C         C         1.0       0.47372190755074833           0.5136308832184766 0.5908159583423879 1.0000   
         C         C         1.0       0.4794723941111956  0.4756020938142252  0.5611879557695729 1.0000   
         C         C         1.0       0.48733224040336137           0.46103574273793035          0.5610958471975965 1.0000   
         C         C         1.0       0.47778101817128654           0.4463658331101113 0.5709144915961064 1.0000   
         C         C         1.0       0.4599527145373179  0.44735338616090603           0.5751180281717948 1.0000   
         C         C         1.0       0.452482081448183   0.46300626674754836           0.5659547513578228 1.0000   
         C         C         1.0       0.46217309474154405           0.4773852031299357 0.5578918845866572 1.0000   
         H         H         1.0       0.4363397859372536  0.45359529127874165           0.2127983917203346 1.0000   
         H         H         1.0       0.4214369788669637  0.4965013937293463  0.3095059258886677 1.0000   
         H         H         1.0       0.39572444550110697           0.49780937311689705          0.2668072332842188 1.0000   
         H         H         1.0       0.40768372327972296           0.45411114114705187          0.16907762551125274          1.0000   
         H         H         1.0       0.4566050392963564  0.5099801938138735  0.30489239965192144          1.0000   
         H         H         1.0       0.4655613404155768  0.5303877383533542  0.2480821078452276 1.0000   
         H         H         1.0       0.46978729303698546           0.4941051227579078 0.10903469980253538          1.0000   
         H         H         1.0       0.46215867844304925           0.4733730821273364 0.1757286187227931 1.0000   
         H         H         1.0       0.42573770315073145           0.47242992200161665          0.3771855530073587 1.0000   
         H         H         1.0       0.4289875393286906  0.47866381580918776           0.4786450001440253 1.0000   
         H         H         1.0       0.4803482021072424  0.4915138966073103  0.4513900368062834 1.0000   
         H         H         1.0       0.4790270151338901  0.4829457761120205  0.3549413770617249 1.0000   
         H         H         1.0       0.4175206508219353  0.5038694442407352  0.6899106946269097 1.0000   
         H         H         1.0       0.44305098980000773           0.49057650767202865          0.645901125158949  1.0000   
         H         H         1.0       0.42855571620029015           0.5133225346203926 0.4874675088903413 1.0000   
         H         H         1.0       0.40280120543778836           0.52380125131322   0.5289724390210816 1.0000   
         H         H         1.0       0.45639463178613543           0.5234381544464161 0.4657597105192824 1.0000   
         H         H         1.0       0.4738951230208505  0.5462638838597773  0.47398602197819073          1.0000   
         H         H         1.0       0.4899918943255957  0.5285160250241652  0.6396865636690885 1.0000   
         H         H         1.0       0.47314526931561535           0.5034896762205631 0.6214719674202953 1.0000   
         H         H         1.0       0.48680468225894763           0.48720517262440144          0.5519483366650377 1.0000   
         H         H         1.0       0.5011087142045073  0.45978312529113985           0.5577930331719233 1.0000   
         H         H         1.0       0.45240066489829067           0.4361145765432792 0.5840301005622055 1.0000   
         H         H         1.0       0.4389098200124165  0.4629077314736672  0.5565376189315039 1.0000   
         C         C         1.0       0.44619316244523255           0.40707608948473534          0.972287584490502  1.0000   
         C         C         1.0       0.46119369562489637           0.4133633031144185 0.9509497435467179 1.0000   
         C         C         1.0       0.4610474758324571  0.4243651071582204  0.9069098320676913 1.0000   
         C         C         1.0       0.44647127527631036           0.43069692145670413          0.8833209061045516 1.0000   
         C         C         1.0       0.43150256885518434           0.4269666269064522 0.9096648016036365 1.0000   
         C         C         1.0       0.4312976479819393  0.41415426499384544           0.9511735890722184 1.0000   
         H         H         1.0       0.47296974514937634           0.4087608973061984 0.9680569957180282 1.0000   
         H         H         1.0       0.47304375708574    0.4297292063931731  0.8927446889394534 1.0000   
         H         H         1.0       0.4193461745487647  0.4320607011294315  0.8973352432371415 1.0000   
         H         H         1.0       0.4191695836373611  0.40977847238666826           0.9698038622394998 1.0000   
         C         C         1.0       0.4242414468469545  0.42708408674081016           0.7715181654541494 1.0000   
         C         C         1.0       0.4326210999393059  0.44174689520547994           0.7876664028087429 1.0000   
         C         C         1.0       0.42738477236474987           0.4560113124142117 0.7580057760353184 1.0000   
         C         C         1.0       0.4137234074014085  0.45591095702957796           0.7241698726384471 1.0000   
         C         C         1.0       0.4047293659991337  0.44141734700247626           0.7116901117931633 1.0000   
         C         C         1.0       0.4106150346946344  0.4270346774768079  0.7341468573223278 1.0000   
         C         C         1.0       0.4483754162903578  0.44280204558264513           0.8299066045626545 1.0000   
         C         C         1.0       0.46339730106393395           0.4396380536951077 0.7882077355783242 1.0000   
         C         C         1.0       0.4716021454762343  0.45181479549642634           0.7567238925072554 1.0000   
         C         C         1.0       0.4813570087279713  0.44778221442554805           0.7126215718596851 1.0000   
         C         C         1.0       0.48514739599007706           0.43144261402565826          0.697501793735019  1.0000   
         C         C         1.0       0.47818810225674585           0.4188775823863995 0.7296593124347912 1.0000   
         C         C         1.0       0.46701385265218553           0.4224338085510299 0.7731170047331056 1.0000   
         C         C         1.0       0.4330237479507069  0.4678416953671292  0.8829485008987233 1.0000   
         C         C         1.0       0.43139154779574473           0.48472893873506495          0.894009682085598  1.0000   
         C         C         1.0       0.4443990205026619  0.4955268844936912  0.8785874122357492 1.0000   
         C         C         1.0       0.4600405755979388  0.4877398428262972  0.8747015538312887 1.0000   
         C         C         1.0       0.46144953319096843           0.4705096247354224 0.8662988351431907 1.0000   
         C         C         1.0       0.44755813288753    0.46064098609421344           0.8591440988240115 1.0000   
         C         C         1.0       0.4416720284853906  0.515409895920076   0.8835222415843029 1.0000   
         C         C         1.0       0.3875264949703417  0.5199124687603596  0.834818889671205  1.0000   
         C         C         1.0       0.39377498950850714           0.5281932961514644 0.8799988352199352 1.0000   
         C         C         1.0       0.4104940386580261  0.5276279445345569  0.8967080633505279 1.0000   
         C         C         1.0       0.4223166985533972  0.518623622145165   0.8661944348201016 1.0000   
         C         C         1.0       0.4159934721204516  0.5114780315794706  0.8158022790577254 1.0000   
         C         C         1.0       0.39883199597973384           0.5106927374181031 0.8031401418107201 1.0000   
         C         C         1.0       0.4508669025257166  0.5265704837539362  0.8363876213321645 1.0000   
         C         C         1.0       0.4567717021557959  0.5196778547139104  0.7865819276695396 1.0000   
         C         C         1.0       0.4667764084463067  0.5291457593217899  0.7509515227396011 1.0000   
         C         C         1.0       0.4697698813435889  0.5465368450039019  0.7614386133230093 1.0000   
         C         C         1.0       0.46251734096247477           0.5541889807644664 0.8086821239471583 1.0000   
         C         C         1.0       0.4526928275892581  0.544261924542879   0.8439023646235964 1.0000   
         C         C         1.0       0.4658112465694363  0.5240663754158227  0.9532899133021463 1.0000   
         C         C         1.0       0.4699137929649704  0.5329910640355138  0.00074845516213351          1.0000   
         C         C         1.0       0.45911376266609255           0.534095191124412  0.044701260045360236         1.0000   
         C         C         1.0       0.44350519820088763           0.5268003204335292 0.040398296647315535         1.0000   
         C         C         1.0       0.4378276235407331  0.520419159389873   0.9884933563046872 1.0000   
         C         C         1.0       0.44897101912127824           0.5195854843702955 0.9440036675154967 1.0000   
         H         H         1.0       0.4295738477341113  0.41505967136370836           0.7863492345755716 1.0000   
         H         H         1.0       0.43386965018309626           0.46825600715677734          0.7611006031200087 1.0000   
         H         H         1.0       0.4084866055501033  0.46810207285883193           0.7090557268936757 1.0000   
         H         H         1.0       0.40451707544246185           0.4145760332907327 0.7223210622406552 1.0000   
         H         H         1.0       0.469094791276707   0.4647613175619416  0.762204371602142  1.0000   
         H         H         1.0       0.4889816313633198  0.4577265444174081  0.6960860256976421 1.0000   
         H         H         1.0       0.48110481077614387           0.4058544447024663 0.7189932697596159 1.0000   
         H         H         1.0       0.46105818117959385           0.41172580269827114          0.7931022531069499 1.0000   
         H         H         1.0       0.4219327414770411  0.4609083105082749  0.8895116230840988 1.0000   
         H         H         1.0       0.42005752880407604           0.48978649452354317          0.9077450991128093 1.0000   
         H         H         1.0       0.4727152650221991  0.49403455994847484           0.8772972177691097 1.0000   
         H         H         1.0       0.4747940057945007  0.46575557581864574           0.8606072258529476 1.0000   
         H         H         1.0       0.38554105820946005           0.5371764129994044 0.9011193284077647 1.0000   
         H         H         1.0       0.4132667494875685  0.5352680685608655  0.9363174902072561 1.0000   
         H         H         1.0       0.4249232242695533  0.504256509811234   0.7913771972920313 1.0000   
         H         H         1.0       0.39299095361446335           0.5039790587500352 0.7703903174901839 1.0000   
         H         H         1.0       0.45418734778035946           0.506269954080144  0.7765603292693055 1.0000   
         H         H         1.0       0.4712848340370247  0.52321897641708    0.7133778813158383 1.0000   
         H         H         1.0       0.4637212956147125  0.5677532938633165  0.816634432683241  1.0000   
         H         H         1.0       0.4464259431466646  0.5509456485160539  0.8789905124726216 1.0000   
         H         H         1.0       0.47476322669900095           0.5250496137621377 0.9193935028848222 1.0000   
         H         H         1.0       0.4828714047571948  0.5378197995033847  0.0049278772922305425        1.0000   
         H         H         1.0       0.43531795878635576           0.5280106401419566 0.07690331737994116          1.0000   
         H         H         1.0       0.4266564019158203  0.5143739696391749  0.9853745625790288 1.0000   
         C         C         1.0       0.42336323220640465           0.9256786153572807 0.4577418809488504 1.0000   
         C         C         1.0       0.4158168072778953  0.9153065194022217  0.42031780489576237          1.0000   
         C         C         1.0       0.4024548420220704  0.9215468294265957  0.3887886912782814 1.0000   
         C         C         1.0       0.39634675645238543           0.9378998862941382 0.3954288544073428 1.0000   
         C         C         1.0       0.40613976137471586           0.9480637058698519 0.431336451905057  1.0000   
         C         C         1.0       0.4187597894231236  0.942159819977194   0.46330008313603926          1.0000   
         H         H         1.0       0.41956255401185283           0.9017821523635466 0.42037561945162094          1.0000   
         H         H         1.0       0.3969021049648577  0.913357238401126   0.358603416763182  1.0000   
         H         H         1.0       0.40276744141650117           0.961359466934789  0.43141902644788077          1.0000   
         H         H         1.0       0.42532519270989394           0.9503647683233158 0.4929694719533877 1.0000   
         C         C         1.0       0.3627372925691791  0.954001355359127   0.42960266934278213          1.0000   
         C         C         1.0       0.3677028203052875  0.9563357019554481  0.3755204650587494 1.0000   
         C         C         1.0       0.3574735986920191  0.9660910924029429  0.3401135375961417 1.0000   
         C         C         1.0       0.3442854604052252  0.9751454491292768  0.3603025867392307 1.0000   
         C         C         1.0       0.3397178879620779  0.9736233384633807  0.41656700382583495          1.0000   
         C         C         1.0       0.3490099522807863  0.9630671825004943  0.4510447287938025 1.0000   
         C         C         1.0       0.38283374313403684           0.9453380434179803 0.3530776108846466 1.0000   
         C         C         1.0       0.37215143283832547           0.9312342895002116 0.32071569265935856          1.0000   
         C         C         1.0       0.3700813184093881  0.9305298899468846  0.2628192206914355 1.0000   
         C         C         1.0       0.3586975938482998  0.9195154367953229  0.24008111400422985          1.0000   
         C         C         1.0       0.3479783459899334  0.9107902753225174  0.2752502324953385 1.0000   
         C         C         1.0       0.35028579335571175           0.9104751719789008 0.3305247358912924 1.0000   
         C         C         1.0       0.3638748165713983  0.9194642102446521  0.35309115952275544          1.0000   
         C         C         1.0       0.3947101602447296  0.9726933593842917  0.3070313256071628 1.0000   
         C         C         1.0       0.398462913741115   0.9796255534183332  0.25428282068803265          1.0000   
         C         C         1.0       0.40565447740072563           0.9701812311790207 0.2115652597000692 1.0000   
         C         C         1.0       0.41012673517386183           0.9537302952524811 0.22669714341889596          1.0000   
         C         C         1.0       0.406688676484311   0.9467486248754495  0.2765630531621467 1.0000   
         C         C         1.0       0.39544836651702125           0.9554815817779495 0.3120308770938736 1.0000   
         C         C         1.0       0.4037630057019748  0.9745956925246166  0.14731870151910864          1.0000   
         C         C         1.0       0.34856389904723384           0.9629611797674517 0.14167743445521622          1.0000   
         C         C         1.0       0.3548026375239051  0.9789157061462916  0.15568669861081766          1.0000   
         C         C         1.0       0.37213690808078626           0.9820084309184205 0.15464063757454724          1.0000   
         C         C         1.0       0.3837260409974967  0.9702367647014296  0.13999740162277113          1.0000   
         C         C         1.0       0.3770158724429032  0.9541854360474809  0.12714102134860647          1.0000   
         C         C         1.0       0.35981788450369506           0.9504314268838413 0.1261489400578783 1.0000   
         C         C         1.0       0.41843115115542706           0.9653031623359206 0.11210976095337362          1.0000   
         C         C         1.0       0.43494351396477055           0.9689593543207732 0.12265433136317319          1.0000   
         C         C         1.0       0.4473124178222691  0.964964106717462   0.08311818531942672          1.0000   
         C         C         1.0       0.443175663434548   0.953165630588772   0.03969948900723974          1.0000   
         C         C         1.0       0.4272579944826936  0.9474807055570589  0.03568175868171397          1.0000   
         C         C         1.0       0.4145159677900956  0.9542592798592456  0.06666521532735126          1.0000   
         C         C         1.0       0.40276149887782176           0.9963817845458396 0.06963115167934597          1.0000   
         C         C         1.0       0.40354103734589253           0.012207122964879247         0.045362777024151375         1.0000   
         C         C         1.0       0.4104278293356752  0.02523491606606809           0.07736273841826558          1.0000   
         C         C         1.0       0.4139951973705833  0.022208511440886314         0.13378205897750206          1.0000   
         C         C         1.0       0.4122538170724276  0.006569093773020285         0.1555796364701085 1.0000   
         C         C         1.0       0.4067449222329275  0.9932510713889386  0.12426514199478254          1.0000   
         H         H         1.0       0.37017298321591524           0.9464126116737199 0.45946050925921855          1.0000   
         H         H         1.0       0.3607404686081217  0.9661394728190511  0.2942712828520179 1.0000   
         H         H         1.0       0.3358923843663967  0.9832715048319103  0.3350621011035464 1.0000   
         H         H         1.0       0.34678141193599854           0.9618080201398671 0.49706833899142433          1.0000   
         H         H         1.0       0.37702271192490616           0.9378589793963698 0.2319211385512436 1.0000   
         H         H         1.0       0.35719362577429853           0.9199180150561326 0.19392785166530344          1.0000   
         H         H         1.0       0.34211803669434987           0.9028781557916563 0.3555030490348791 1.0000   
         H         H         1.0       0.3654465184475767  0.9196943334490425  0.39828320549528273          1.0000   
         H         H         1.0       0.38589278498066154           0.9810087090423852 0.32918447173981685          1.0000   
         H         H         1.0       0.3947610559635912  0.9919305536826383  0.24596544176764817          1.0000   
         H         H         1.0       0.41568778247594634           0.9453450854376859 0.19539887603761702          1.0000   
         H         H         1.0       0.4095765663199436  0.9334316441090525  0.2811984309057933 1.0000   
         H         H         1.0       0.3458041004445944  0.9889770324813396  0.1696053404589777 1.0000   
         H         H         1.0       0.37664043989401746           0.9947925870963287 0.16392228253749092          1.0000   
         H         H         1.0       0.38559729916000807           0.9431762732140786 0.1264817173155734 1.0000   
         H         H         1.0       0.35522569489984884           0.9379549303626773 0.11423663395600481          1.0000   
         H         H         1.0       0.43841750999516427           0.980182412235879  0.14992196645624145          1.0000   
         H         H         1.0       0.46007702245025905           0.9686938571755032 0.08958453769176478          1.0000   
         H         H         1.0       0.424598096127641   0.9384218993446664  0.0030347881845163016        1.0000   
         H         H         1.0       0.4023581119802548  0.950255943148716   0.061794286079273064         1.0000   
         H         H         1.0       0.3988523099939096  0.9863195819459696  0.04316199912977048          1.0000   
         H         H         1.0       0.4011215751529254  0.0150278201564924  0.9996629518436031 1.0000   
         H         H         1.0       0.41916326300430173           0.03252296006230071          0.16017239579078665          1.0000   
         H         H         1.0       0.4178734198613947  0.005530837490854035         0.1969333649573199 1.0000   
         C         C         1.0       0.4334930488516451  0.9652611340543404  0.9186342516238452 1.0000   
         C         C         1.0       0.4276085898920213  0.9511190518040528  0.8937033284529773 1.0000   
         C         C         1.0       0.4100319832177714  0.9488133037865625  0.889374674064451  1.0000   
         C         C         1.0       0.3985844648901305  0.961798241153189   0.9049866732027446 1.0000   
         C         C         1.0       0.4063571816563095  0.9767528738626571  0.9186506013780099 1.0000   
         C         C         1.0       0.4233445865327797  0.9783256784544241  0.9325310911917343 1.0000   
         H         H         1.0       0.4350996916094774  0.9399293032273102  0.8861959751434361 1.0000   
         H         H         1.0       0.4057273797370172  0.9374711710876333  0.8711970847879272 1.0000   
         H         H         1.0       0.39800633742122915           0.9865396338546406 0.9312787821604828 1.0000   
         H         H         1.0       0.42814519370083043           0.9886964926774169 0.9561925585488816 1.0000   
         C         C         1.0       0.36916058721359035           0.977477172866335  0.983392463129794  1.0000   
         C         C         1.0       0.36554295182537055           0.9707889265851746 0.9310817461771774 1.0000   
         C         C         1.0       0.3502653353345113  0.9746470380282275  0.9076852077831757 1.0000   
         C         C         1.0       0.3391985280162722  0.9844711101046829  0.938511925993181  1.0000   
         C         C         1.0       0.3434480117889581  0.991759907396167   0.9880693237966193 1.0000   
         C         C         1.0       0.3585118692602162  0.9876648470694531  0.011733853107599446         1.0000   
         C         C         1.0       0.37854935169854503           0.958074551902482  0.9008360513928403 1.0000   
         C         C         1.0       0.37305843044042775           0.9416515225617216 0.9351550803862317 1.0000   
         C         C         1.0       0.3568507423260456  0.9351744394165762  0.9278363922703581 1.0000   
         C         C         1.0       0.351412750162448   0.9216434739967583  0.9558415386579046 1.0000   
         C         C         1.0       0.36135511532783826           0.9150715523117    0.9986686020950617 1.0000   
         C         C         1.0       0.37717235586017106           0.9212759228309207 0.007601055284094382         1.0000   
         C         C         1.0       0.3830967690704197  0.9342834424996636  0.974785976825614  1.0000   
         C         C         1.0       0.3770063163622127  0.9719469407747008  0.8081419614009622 1.0000   
         C         C         1.0       0.37794040585786853           0.9727162590228573 0.7496927959433601 1.0000   
         C         C         1.0       0.3781940370971587  0.958260794164064   0.7177016951432599 1.0000   
         C         C         1.0       0.37699067652270896           0.9431669163229879 0.7465745885363595 1.0000   
         C         C         1.0       0.37636605380876775           0.9420838208169698 0.8042332740103636 1.0000   
         C         C         1.0       0.3768373785191944  0.9569272407220779  0.8354557794200018 1.0000   
         C         C         1.0       0.3805547818301602  0.9585797269755878  0.6493440696264335 1.0000   
         C         C         1.0       0.32733523199718995           0.9702070551518344 0.6371199189331685 1.0000   
         C         C         1.0       0.3399529367577265  0.9824892781463497  0.6332522470607707 1.0000   
         C         C         1.0       0.35665009761332583           0.9789618953250775 0.6227159384841712 1.0000   
         C         C         1.0       0.36154642035007784           0.961900711904032  0.6297693993647226 1.0000   
         C         C         1.0       0.34991572139361454           0.9486044101082526 0.6346206198061692 1.0000   
         C         C         1.0       0.33305983843217857           0.9533138861113081 0.637999756795758  1.0000   
         C         C         1.0       0.3901462696711038  0.9417787339510916  0.627095979771941  1.0000   
         C         C         1.0       0.40617454091417693           0.9376735456972258 0.6498564395691006 1.0000   
         C         C         1.0       0.41685654605518396           0.9264083328934025 0.6256680988975165 1.0000   
         C         C         1.0       0.4111707664113689  0.9178791132167405  0.5794008512736439 1.0000   
         C         C         1.0       0.39532262990000944           0.9215872250203447 0.5571159555646181 1.0000   
         C         C         1.0       0.3848900428234841  0.9334523961297967  0.5794953333727054 1.0000   
         C         C         1.0       0.3940740108408035  0.9750678958689675  0.5659509967302313 1.0000   
         C         C         1.0       0.40498868768443286           0.9858091541646192 0.5412717913357015 1.0000   
         C         C         1.0       0.4167682910192338  0.9938915552058623  0.5728918725930353 1.0000   
         C         C         1.0       0.41761822525511955           0.9910443961834664 0.630351390047048  1.0000   
         C         C         1.0       0.40607268889171594           0.9802312249214303 0.6543855999669634 1.0000   
         C         C         1.0       0.39391763611131203           0.9717708235417152 0.6235188794540553 1.0000   
         H         H         1.0       0.38035638496598223           0.9722119140485197 0.0029465588312984625        1.0000   
         H         H         1.0       0.34486988248231004           0.9680240877559676 0.8688211440847639 1.0000   
         H         H         1.0       0.3265777765164248  0.9867920036267166  0.9215962426005723 1.0000   
         H         H         1.0       0.36041588758365345           0.9942489979478384 0.050429624441468146         1.0000   
         H         H         1.0       0.3477493955244059  0.9408118864169458  0.9015754775551355 1.0000   
         H         H         1.0       0.3383753835646843  0.9191196585737299  0.9516293062685336 1.0000   
         H         H         1.0       0.38379691531322385           0.9165170411640355 0.04322481567355907          1.0000   
         H         H         1.0       0.39531968034714315           0.9382183557607593 0.9826678439936275 1.0000   
         H         H         1.0       0.3800589403354202  0.9833311733106066  0.8299489098938682 1.0000   
         H         H         1.0       0.38110240144932367           0.984733539113697  0.7298577490209388 1.0000   
         H         H         1.0       0.3747601973524726  0.9316059562847199  0.7220422361314653 1.0000   
         H         H         1.0       0.3749518402618405  0.9290613562080672  0.8210565724025389 1.0000   
         H         H         1.0       0.33795150196110113           0.9959384899069001 0.640098143902738  1.0000   
         H         H         1.0       0.3655116814774442  0.989574975736567   0.6182549939515225 1.0000   
         H         H         1.0       0.35431755326109327           0.9357366320962446 0.640625563246254  1.0000   
         H         H         1.0       0.3235064280768197  0.944025421789406   0.6441752663065959 1.0000   
         H         H         1.0       0.41090583808698816           0.9460235633313382 0.6863047857688285 1.0000   
         H         H         1.0       0.4300162223318739  0.9255446512327653  0.6429913697585453 1.0000   
         H         H         1.0       0.39201272219406735           0.9154947412466292 0.5183927939112366 1.0000   
         H         H         1.0       0.37410959125247295           0.938594892839093  0.5558708072932199 1.0000   
         H         H         1.0       0.38510366806154717           0.9677768890775047 0.5413790122979036 1.0000   
         H         H         1.0       0.4044836510719751  0.9891185053075495  0.4967124306010584 1.0000   
         H         H         1.0       0.4271936888694237  0.9951456203448006  0.6586650260897058 1.0000   
         H         H         1.0       0.4078715127446153  0.9772226606909884  0.6988644019768199 1.0000   
         C         C         1.0       0.3528707822786717  0.8724957258676561  0.264766300536132  1.0000   
         C         C         1.0       0.36913365468977377           0.8742892638209394 0.28220069070647524          1.0000   
         C         C         1.0       0.3745745233881217  0.8654673979540076  0.32758326667827287          1.0000   
         C         C         1.0       0.3644891067694345  0.8524647412962606  0.3519585607284256 1.0000   
         C         C         1.0       0.34773037708622523           0.8508067359653336 0.33271829469238356          1.0000   
         C         C         1.0       0.34245724228851476           0.8617181670516911 0.29066766496673746          1.0000   
         H         H         1.0       0.37740204354762863           0.884355846021131  0.26642547908190695          1.0000   
         H         H         1.0       0.38757478821445257           0.8674843984563465 0.339717579147303  1.0000   
         H         H         1.0       0.33838915321962637           0.8420336027212828 0.35147157274284424          1.0000   
         H         H         1.0       0.32919728522351277           0.8616756131473249 0.27961326282419185          1.0000   
         C         C         1.0       0.3597548483019687  0.8234169125541728  0.48652915381987405          1.0000   
         C         C         1.0       0.3601664072999121  0.8267288231676716  0.42634797234251826          1.0000   
         C         C         1.0       0.35508349951626705           0.813094561742186  0.39108917695373135          1.0000   
         C         C         1.0       0.35114982628522956           0.7976237578191201 0.41536399468313023          1.0000   
         C         C         1.0       0.3521718834721534  0.7951058679359907  0.472755881380755  1.0000   
         C         C         1.0       0.35595540228436867           0.8078278650301017 0.5082214155444805 1.0000   
         C         C         1.0       0.37293716807617683           0.839827197727037  0.3976248804791616 1.0000   
         C         C         1.0       0.37873961488090235           0.8527492951091891 0.44602785855175847          1.0000   
         C         C         1.0       0.39472302469094195           0.8529727813730372 0.4701312479242239 1.0000   
         C         C         1.0       0.39735266041595757           0.8621288104609922 0.5190731612685211 1.0000   
         C         C         1.0       0.3843945883407575  0.8700527981569528  0.5463513848916249 1.0000   
         C         C         1.0       0.3682123057540273  0.8700534394748014  0.5210474724116972 1.0000   
         C         C         1.0       0.36596336663653184           0.8619800121671352 0.470825232910575  1.0000   
         C         C         1.0       0.39135400048405755           0.8297335646257317 0.3114502797705975 1.0000   
         C         C         1.0       0.3984956220643163  0.8161571109016611  0.28748868078711054          1.0000   
         C         C         1.0       0.40553559589016436           0.8030065151486101 0.3204298410385856 1.0000   
         C         C         1.0       0.40533368435528006           0.8047629915624441 0.3774344724881904 1.0000   
         C         C         1.0       0.3973202198968669  0.8182556032805777  0.40117080345476147          1.0000   
         C         C         1.0       0.38856909354250785           0.8303752342144538 0.3694870294266333 1.0000   
         C         C         1.0       0.4100322192732641  0.7851932399008588  0.29282789986151875          1.0000   
         C         C         1.0       0.3594782196140735  0.7647889205137209  0.27657029968039076          1.0000   
         C         C         1.0       0.36598164148066725           0.7758132032445042 0.23851307476997358          1.0000   
         C         C         1.0       0.38186530905225463           0.7814995008109705 0.241616484596042  1.0000   
         C         C         1.0       0.3919885412273995  0.7774189442321124  0.2859627872602841 1.0000   
         C         C         1.0       0.3855772169981112  0.7658277575183151  0.3260081759380522 1.0000   
         C         C         1.0       0.3692605793363641  0.7597498050814104  0.32190152958443574          1.0000   
         C         C         1.0       0.4234303700845246  0.7724275252951552  0.31876887482112454          1.0000   
         C         C         1.0       0.43692388013435896           0.7786807217550877 0.3483721274539174 1.0000   
         C         C         1.0       0.4512161408575772  0.7697293431415656  0.36455618629257935          1.0000   
         C         C         1.0       0.4537599823088786  0.7538934101624257  0.3391668496914257 1.0000   
         C         C         1.0       0.440547861750161   0.7468342176080509  0.30700246293918787          1.0000   
         C         C         1.0       0.42505119541046604           0.7554331234882996 0.3002509407540128 1.0000   
         C         C         1.0       0.4184208524584121  0.7793552062847862  0.18808955925883208          1.0000   
         C         C         1.0       0.4278448254918883  0.7823521921183212  0.142109258134485  1.0000   
         C         C         1.0       0.4401912168042263  0.7949451280944131  0.13959823619320877          1.0000   
         C         C         1.0       0.44322285651948495           0.8038790281661065 0.1891462597241439 1.0000   
         C         C         1.0       0.4333391745605833  0.8013071007480644  0.2367307333886174 1.0000   
         C         C         1.0       0.4206761490439791  0.7892061304349421  0.23628199498155547          1.0000   
         H         H         1.0       0.3632079746548224  0.832661423503396   0.516266027886823  1.0000   
         H         H         1.0       0.356547127969905   0.813371964361088   0.3456019842280615 1.0000   
         H         H         1.0       0.3491749508742786  0.7875115108460653  0.38628287039564024          1.0000   
         H         H         1.0       0.35639697785650354           0.8074208481934959 0.5529238022248416 1.0000   
         H         H         1.0       0.4058094856886691  0.8453274394097258  0.4536532923138361 1.0000   
         H         H         1.0       0.40947766349806874           0.8619119597292683 0.5411825892246166 1.0000   
         H         H         1.0       0.3588965766654105  0.8772819056771763  0.5402229970835117 1.0000   
         H         H         1.0       0.35363385953686477           0.8618003301965462 0.4499774304582324 1.0000   
         H         H         1.0       0.3845636729895732  0.8383974063391405  0.28565208085785937          1.0000   
         H         H         1.0       0.3971223448331144  0.8150068154484059  0.24221291295941821          1.0000   
         H         H         1.0       0.4107838186646677  0.7960082092938442  0.4050809253620304 1.0000   
         H         H         1.0       0.3962861315268023  0.8168490358737217  0.4441519078332345 1.0000   
         H         H         1.0       0.35667541074295944           0.7795324689404043 0.20819166804121983          1.0000   
         H         H         1.0       0.38563212443949507           0.7905392547447374 0.20900772490153133          1.0000   
         H         H         1.0       0.39242944213068615           0.7635251349827545 0.36601117076363404          1.0000   
         H         H         1.0       0.3649573187250087  0.7511689252342894  0.3543096985139793 1.0000   
         H         H         1.0       0.43555011377641695           0.791195271292594  0.36236444416992675          1.0000   
         H         H         1.0       0.46122920205337425           0.7761206032844951 0.39133393252032606          1.0000   
         H         H         1.0       0.44170976856031474           0.7340291748672215 0.2905064404832356 1.0000   
         H         H         1.0       0.41647506628179487           0.7491796074584349 0.27439076248877814          1.0000   
         H         H         1.0       0.4091223766366365  0.7693364314079747  0.18590670287171332          1.0000   
         H         H         1.0       0.4268928624532828  0.7751342645695614  0.1032909832296798 1.0000   
         H         H         1.0       0.45392619122756983           0.8128420250938544 0.18553367967761503          1.0000   
         H         H         1.0       0.43604885875385113           0.8073379336232632 0.2767993506682564 1.0000   
         C         C         1.0       0.35222167392086245           0.8713083641311284 0.014024071155576134         1.0000   
         C         C         1.0       0.36978583166613305           0.8693074556390783 0.01214155580459364          1.0000   
         C         C         1.0       0.37684094524099404           0.8541723903002059 0.996949061169135  1.0000   
         C         C         1.0       0.3667376664818757  0.840094955156786   0.9912234621773324 1.0000   
         C         C         1.0       0.34922619492925566           0.8419932920645233 0.9925751386677364 1.0000   
         C         C         1.0       0.3422971166368894  0.8578661224626931  0.003583421363478445         1.0000   
         H         H         1.0       0.37935830339177906           0.8780701980958524 0.024001699315219893         1.0000   
         H         H         1.0       0.39045380390080414           0.8537307654582842 0.9917480056704391 1.0000   
         H         H         1.0       0.3403692190923219  0.8321774149958139  0.9826132738369849 1.0000   
         H         H         1.0       0.32912824886832126           0.8596092766833041 0.0006334098085234441        1.0000   
         C         C         1.0       0.35589359335974585           0.8058135464918602 0.044177461788295735         1.0000   
         C         C         1.0       0.36396909990305737           0.8062340179682126 0.9933116707190445 1.0000   
         C         C         1.0       0.3644093519668202  0.7917394656994646  0.9578408284432778 1.0000   
         C         C         1.0       0.3557814675735248  0.7775534147903157  0.975110858452158  1.0000   
         C         C         1.0       0.3470200577492644  0.7776519815790133  0.025685331102666575         1.0000   
         C         C         1.0       0.34687721939053506           0.791678864954319  0.05866083001379074          1.0000   
         C         C         1.0       0.3746244194816661  0.8225934892505803  0.9759727052885259 1.0000   
         C         C         1.0       0.3915154986889826  0.8179655369833347  0.006444049421371112         1.0000   
         C         C         1.0       0.4028223676961415  0.8064311877106727  0.9802695004464678 1.0000   
         C         C         1.0       0.41843298706573273           0.8039856850858812 0.0032271254393274607        1.0000   
         C         C         1.0       0.4239459223007491  0.8144984558333153  0.0449876227847279 1.0000   
         C         C         1.0       0.41232981837371085           0.8237486932284671 0.0775306535768907 1.0000   
         C         C         1.0       0.3969684050820439  0.8247988598099154  0.05735811749660491          1.0000   
         C         C         1.0       0.36262468704740963           0.8224226033091941 0.8754542490969007 1.0000   
         C         C         1.0       0.3645829952174621  0.8163684029394487  0.8203675620819527 1.0000   
         C         C         1.0       0.3810461115938977  0.8141398826833139  0.797000229257947  1.0000   
         C         C         1.0       0.3938241393800326  0.8226704925889654  0.8261241147634591 1.0000   
         C         C         1.0       0.39110415953752353           0.8282631019086775 0.8789219647962513 1.0000   
         C         C         1.0       0.37707274574618554           0.8246921121434934 0.9090859806591007 1.0000   
         C         C         1.0       0.3837206150527     0.8043451576141184  0.7386457954864615 1.0000   
         C         C         1.0       0.3487373045474765  0.7611667176071159  0.710262015757308  1.0000   
         C         C         1.0       0.35398554344366917           0.771523695571724  0.6648530254606888 1.0000   
         C         C         1.0       0.36454721598227524           0.785632256964651  0.6747768252086369 1.0000   
         C         C         1.0       0.37060265947807147           0.7888002880523187 0.7272177650938632 1.0000   
         C         C         1.0       0.3669253647645061  0.7773143317132574  0.770345957468138  1.0000   
         C         C         1.0       0.35549550966715887           0.7643092885794907 0.7628340985664097 1.0000   
         C         C         1.0       0.40152013161501265           0.7945501362191533 0.7376070988173584 1.0000   
         C         C         1.0       0.40668417904518217           0.7845760274389828 0.7818227458403127 1.0000   
         C         C         1.0       0.4206375536950914  0.7743901849784617  0.7764876600163069 1.0000   
         C         C         1.0       0.4299298323348708  0.7739679692264738  0.7288003040529608 1.0000   
         C         C         1.0       0.4257871859337392  0.7839592092933765  0.6845332800364522 1.0000   
         C         C         1.0       0.4111663881043638  0.7933582792815047  0.6889125776451024 1.0000   
         C         C         1.0       0.3944027541971854  0.8303574622550186  0.6940546743212355 1.0000   
         C         C         1.0       0.39246782286635634           0.8464022611975436 0.6732001123087612 1.0000   
         C         C         1.0       0.3762220756022528  0.8532354245355367  0.662254998186001  1.0000   
         C         C         1.0       0.3633200802098347  0.8421836733277259  0.6571481809982598 1.0000   
         C         C         1.0       0.3650531788934297  0.8259972727571329  0.6788716993776203 1.0000   
         C         C         1.0       0.38027426247329277           0.8200094493872191 0.6970326363733735 1.0000   
         H         H         1.0       0.35453611469503304           0.817269263714621  0.06791009237240497          1.0000   
         H         H         1.0       0.3710342045855894  0.7910374434517099  0.9158523758044288 1.0000   
         H         H         1.0       0.3531625663625793  0.7678062505695554  0.9446710161592381 1.0000   
         H         H         1.0       0.3402679075102636  0.7928882725215314  0.09797637512059665          1.0000   
         H         H         1.0       0.398682563596758   0.7991226581027999  0.9425414746226994 1.0000   
         H         H         1.0       0.42704271183381887           0.7967814928175155 0.9792788665777358 1.0000   
         H         H         1.0       0.41626268786871656           0.8301198895284321 0.11626743522061567          1.0000   
         H         H         1.0       0.38998984676178555           0.8329689444141608 0.08186073276932704          1.0000   
         H         H         1.0       0.3496636605962008  0.8233037027718026  0.8922483943013371 1.0000   
         H         H         1.0       0.3528962951659882  0.8123013829853288  0.799679271184919  1.0000   
         H         H         1.0       0.40682242446652706           0.822074831803285  0.809664181825713  1.0000   
         H         H         1.0       0.40287865493019764           0.8319693453988419 0.9024623954040688 1.0000   
         H         H         1.0       0.35024803031583424           0.7673464085696005 0.6260671473365663 1.0000   
         H         H         1.0       0.3683433748371511  0.7935029032595103  0.6408206138012205 1.0000   
         H         H         1.0       0.37124683631688327           0.7798068922390757 0.8145496821840511 1.0000   
         H         H         1.0       0.3516886312438594  0.7577463305102313  0.8001544754492979 1.0000   
         H         H         1.0       0.3993309572385248  0.7854186933059376  0.8212889256597753 1.0000   
         H         H         1.0       0.42562064824587265           0.7679997231695084 0.8130380368361824 1.0000   
         H         H         1.0       0.434191881693707   0.7841744973172116  0.6470163589635708 1.0000   
         H         H         1.0       0.4067464192779833  0.7991603932658992  0.6523842962812746 1.0000   
         H         H         1.0       0.4062532285617944  0.8267478794141356  0.7102921894354425 1.0000   
         H         H         1.0       0.40348365083710347           0.8553017791015717 0.6744596186768023 1.0000   
         H         H         1.0       0.35200265149905846           0.8454290738829555 0.640998429880098  1.0000   
         H         H         1.0       0.3541937147713886  0.8182948200377709  0.6839923364221856 1.0000   
         C         C         1.0       0.2117178229139994  0.9639800212281918  0.9349457719749775 1.0000   
         C         C         1.0       0.22012429517007176           0.9488041179420167 0.9277239659187738 1.0000   
         C         C         1.0       0.2362344920905428  0.9457755230241203  0.9509750713102275 1.0000   
         C         C         1.0       0.24401587887115234           0.9589660993142365 0.9785483727889476 1.0000   
         C         C         1.0       0.23587005604247283           0.9742228974970547 0.9825889984776731 1.0000   
         C         C         1.0       0.2203178224953949  0.9766315818143425  0.9595248985896931 1.0000   
         H         H         1.0       0.213740455843427   0.9387211342044308  0.9061705729121442 1.0000   
         H         H         1.0       0.24233873329195516           0.9333620000308973 0.9504943681897297 1.0000   
         H         H         1.0       0.24198978036149194           0.9833400643716158 0.01112106506119126          1.0000   
         H         H         1.0       0.21522411516351828           0.9885253445995326 0.9685306188574301 1.0000   
         C         C         1.0       0.27520407845274614           0.9802896676742052 0.9684475227494924 1.0000   
         C         C         1.0       0.2746467520428589  0.9701159578010206  0.014147839794444783         1.0000   
         C         C         1.0       0.2863992468368537  0.9723331824189038  0.05755945806623508          1.0000   
         C         C         1.0       0.2981865031708484  0.9851173101947693  0.05403207281073974          1.0000   
         C         C         1.0       0.3002036582165156  0.9937507163073681  0.00518200667810631          1.0000   
         C         C         1.0       0.2879490000289715  0.9925201204790165  0.9636682660485048 1.0000   
         C         C         1.0       0.26084038553966626           0.9548574478022038 0.011194583872902175         1.0000   
         C         C         1.0       0.2732457190567259  0.9407433279515451  0.9884497210462709 1.0000   
         C         C         1.0       0.28285904611234597           0.9309521699139888 0.025190428121996344         1.0000   
         C         C         1.0       0.2914157452759842  0.9169240639972565  0.0034756549770205147        1.0000   
         C         C         1.0       0.2932320528021905  0.9141635566425178  0.9469431030725961 1.0000   
         C         C         1.0       0.28520070025404776           0.9250689397663149 0.9086752757607708 1.0000   
         C         C         1.0       0.2751974470659464  0.9376761143670816  0.9315372371351506 1.0000   
         C         C         1.0       0.2505217034658619  0.9663652954147319  0.10998279686961498          1.0000   
         C         C         1.0       0.24964813685112533           0.9639324350190597 0.16718600091789287          1.0000   
         C         C         1.0       0.24715773312116468           0.9476591523418223 0.18967107922969828          1.0000   
         C         C         1.0       0.24643809464652677           0.934321494198345  0.15138909351836072          1.0000   
         C         C         1.0       0.24900712320686366           0.9370427050602396 0.09447183374903713          1.0000   
         C         C         1.0       0.25268756511578233           0.9525643654662173 0.07459212305358931          1.0000   
         C         C         1.0       0.2524051982498779  0.9430718320665125  0.2525429916382351 1.0000   
         C         C         1.0       0.30674192542077205           0.9485960855936793 0.21608205626624105          1.0000   
         C         C         1.0       0.29710895029919926           0.9620177630976032 0.2313822290251763 1.0000   
         C         C         1.0       0.28066329202057977           0.9593046930719666 0.24746686615890812          1.0000   
         C         C         1.0       0.2724537704461781  0.9438503829583018  0.24384203984370453          1.0000   
         C         C         1.0       0.2821859943913051  0.930423233272393   0.22523837854742135          1.0000   
         C         C         1.0       0.2989919816223304  0.9330147910681811  0.21144169701291046          1.0000   
         C         C         1.0       0.24472570700057072           0.9252109415274667 0.27692428036261874          1.0000   
         C         C         1.0       0.2285006986200482  0.9196267633540904  0.2646236398163708 1.0000   
         C         C         1.0       0.221012607323042   0.9070461020241766  0.2955658308567206 1.0000   
         C         C         1.0       0.2296138714123053  0.8989689845534968  0.3367632534377482 1.0000   
         C         C         1.0       0.24658921311612078           0.9022265291661199 0.3430307583327752 1.0000   
         C         C         1.0       0.25382534389908257           0.9155364406981152 0.31634557633890603          1.0000   
         C         C         1.0       0.2538515008828897  0.9571708821345062  0.35231947435802047          1.0000   
         C         C         1.0       0.24879573114862277           0.9686295203177038 0.3909750688056621 1.0000   
         C         C         1.0       0.23448662784855576           0.9780703386891231 0.3824312803271907 1.0000   
         C         C         1.0       0.22710173026205902           0.9777062814606504 0.33140648288415486          1.0000   
         C         C         1.0       0.23157472831097262           0.9657365711956255 0.29098477716001964          1.0000   
         C         C         1.0       0.2460241514661403  0.9556208997687242  0.29946678929401127          1.0000   
         H         H         1.0       0.26766374279645044           0.9783753836481518 0.9311034070642406 1.0000   
         H         H         1.0       0.2860563990366543  0.9660071637798874  0.09698394895498064          1.0000   
         H         H         1.0       0.30829175714011087           0.9862503130280471 0.08643440577973727          1.0000   
         H         H         1.0       0.28902708501626545           0.9989650682782538 0.9240808028245371 1.0000   
         H         H         1.0       0.2830602647655123  0.9320568261273248  0.07133617933259617          1.0000   
         H         H         1.0       0.2979069358153078  0.9074699469481778  0.0293852650202997 1.0000   
         H         H         1.0       0.28606660309434156           0.9226500818533072 0.8641503292976835 1.0000   
         H         H         1.0       0.2678029786408974  0.9451381961902018  0.9037601941081751 1.0000   
         H         H         1.0       0.25193193888658383           0.9800732879158505 0.09682256839228809          1.0000   
         H         H         1.0       0.25042565383892523           0.9750333172447578 0.1935243660097469 1.0000   
         H         H         1.0       0.24460777988637183           0.9208951019674628 0.16104051315880108          1.0000   
         H         H         1.0       0.2523028882444929  0.9261744661033487  0.0696346472202316 1.0000   
         H         H         1.0       0.3034782503865904  0.9735770496141055  0.24162111400048375          1.0000   
         H         H         1.0       0.27312836052800155           0.9705563567316274 0.25887988609169016          1.0000   
         H         H         1.0       0.27633761459534373           0.9185146976063081 0.21623466657511034          1.0000   
         H         H         1.0       0.306031913272746   0.9214991455481947  0.19929848977330644          1.0000   
         H         H         1.0       0.2218014586083015  0.9247151947675272  0.2317572189047729 1.0000   
         H         H         1.0       0.20873408961612766           0.902286021226103  0.2814762344830948 1.0000   
         H         H         1.0       0.2546657525654178  0.8967557671162416  0.3725402340594491 1.0000   
         H         H         1.0       0.26578648885316913           0.9190102746027803 0.3310673853684276 1.0000   
         H         H         1.0       0.2659592801354828  0.9510164404153417  0.357628989165994  1.0000   
         H         H         1.0       0.25427702039830596           0.9689156727950017 0.43483491973210275          1.0000   
         H         H         1.0       0.21608763493776653           0.9861230548001731 0.3270658398417758 1.0000   
         H         H         1.0       0.22408106862230528           0.9645358730636813 0.2531902278873011 1.0000   
         C         C         1.0       0.2247663459984096  0.9036738915034566  0.4685329366778343 1.0000   
         C         C         1.0       0.2314843750200751  0.8977551980121886  0.5183426384256568 1.0000   
         C         C         1.0       0.24263837360093407           0.9074258960617415 0.5489472372540138 1.0000   
         C         C         1.0       0.24818255348109913           0.9232912004386971 0.5297362855639481 1.0000   
         C         C         1.0       0.23972072091149874           0.9291562698332526 0.48077730036622957          1.0000   
         C         C         1.0       0.22770481464026823           0.919738872358403  0.4529229073238402 1.0000   
         H         H         1.0       0.2312496222883592  0.88464484805926    0.5317748460778896 1.0000   
         H         H         1.0       0.2477268562677605  0.9007959351669872  0.5862700001820991 1.0000   
         H         H         1.0       0.24179768417639716           0.9413817475315928 0.4648186465798891 1.0000   
         H         H         1.0       0.21954827538097899           0.9254370245090711 0.42096401255021665          1.0000   
         C         C         1.0       0.28074241853977944           0.9388237614243393 0.47254822339805347          1.0000   
         C         C         1.0       0.2742406006076799  0.9446038259539057  0.5235997393578057 1.0000   
         C         C         1.0       0.28094019500022976           0.9596255202427495 0.5431662872085335 1.0000   
         C         C         1.0       0.29134366182373533           0.9693541761066403 0.5115865757112925 1.0000   
         C         C         1.0       0.2976018348532757  0.9631619430844833  0.4618060752140501 1.0000   
         C         C         1.0       0.2926160756760099  0.9476811683946761  0.44270801481418964          1.0000   
         C         C         1.0       0.2608891402830692  0.9348628863495612  0.5604638587915004 1.0000   
         C         C         1.0       0.2738802284435047  0.9263463081044181  0.6039245196562083 1.0000   
         C         C         1.0       0.27916361848741167           0.9349456199898034 0.6524986748701831 1.0000   
         C         C         1.0       0.2910330827922931  0.9274057313282444  0.6907482756312362 1.0000   
         C         C         1.0       0.29951712914470285           0.9127236877366262 0.6744714867075884 1.0000   
         C         C         1.0       0.29546294573689724           0.9055059660965282 0.6239119483364454 1.0000   
         C         C         1.0       0.2818177006279954  0.9111669364172774  0.592268894447561  1.0000   
         C         C         1.0       0.24416819518470212           0.9622439490888678 0.5618776108177891 1.0000   
         C         C         1.0       0.23627185114036686           0.9749707568234313 0.5905106985190293 1.0000   
         C         C         1.0       0.23128495128147508           0.9732441097090966 0.6471904130421862 1.0000   
         C         C         1.0       0.2325804519921578  0.9570495887248728  0.6705706869608148 1.0000   
         C         C         1.0       0.24126357577668153           0.9445353072367476 0.6428938133806554 1.0000   
         C         C         1.0       0.24822241852681345           0.9470380949296515 0.5904795616836367 1.0000   
         C         C         1.0       0.22958407620721408           0.9904009191859451 0.6821150511573847 1.0000   
         C         C         1.0       0.28560598542427595           0.9892814391458281 0.7035510984263517 1.0000   
         C         C         1.0       0.27792947927834427           0.9990374563917658 0.6615630713028275 1.0000   
         C         C         1.0       0.260598347920516   0.9999929274853253  0.6579410988107497 1.0000   
         C         C         1.0       0.24977313527894626           0.9925078578194583 0.6966084164125483 1.0000   
         C         C         1.0       0.25774169196146723           0.9841631091349261 0.7411387040376007 1.0000   
         C         C         1.0       0.2749491938414395  0.9825898733575809  0.7460373909856468 1.0000   
         C         C         1.0       0.21675239512317787           0.9891394842388279 0.7371957597326589 1.0000   
         C         C         1.0       0.2016266790969236  0.9808939025260137  0.7381391329253464 1.0000   
         C         C         1.0       0.1922445777131032  0.9796387148071977  0.7857941623465423 1.0000   
         C         C         1.0       0.1972503175984544  0.9868860246481993  0.836051748491433  1.0000   
         C         C         1.0       0.21230184457896586           0.9958317805399595 0.8357723713236718 1.0000   
         C         C         1.0       0.22192373774414467           0.9968331629186457 0.7869893043630882 1.0000   
         C         C         1.0       0.22669302530089716           0.022204562627414104         0.6643887794457081 1.0000   
         C         C         1.0       0.22156374438030238           0.035842148531054274         0.6329430907361383 1.0000   
         C         C         1.0       0.20972185705768107           0.033850070667285515         0.5909682094062394 1.0000   
         C         C         1.0       0.20363603363732666           0.017590020436054177         0.5789370204455621 1.0000   
         C         C         1.0       0.20903300886676215           0.004103638045346081         0.6097791107682375 1.0000   
         C         C         1.0       0.22206963961663975           0.005667244341333699         0.6482165540357434 1.0000   
         H         H         1.0       0.27479725797202753           0.928828764469832  0.4518746925489921 1.0000   
         H         H         1.0       0.27639372920905725           0.9653777393743623 0.5839623435485772 1.0000   
         H         H         1.0       0.2946040394609469  0.981836562457116   0.5223425750440571 1.0000   
         H         H         1.0       0.296796467453507   0.9452904958453879  0.39924113196402494          1.0000   
         H         H         1.0       0.27563352610891806           0.9475712489658594 0.6611057061045937 1.0000   
         H         H         1.0       0.2934217575964126  0.9333079068260717  0.7292141883570868 1.0000   
         H         H         1.0       0.3022161963960459  0.8935519369132935  0.6074431105215439 1.0000   
         H         H         1.0       0.2794219399388483  0.9058555501588494  0.5514424876335614 1.0000   
         H         H         1.0       0.24583162872751646           0.9642606108094874 0.5172535022295547 1.0000   
         H         H         1.0       0.23378913919130717           0.986376801744249  0.5654209806587955 1.0000   
         H         H         1.0       0.2278220032182287  0.9537934340389964  0.7136562355262095 1.0000   
         H         H         1.0       0.24218949272091514           0.9327185495323566 0.659912051715578  1.0000   
         H         H         1.0       0.28470457657632897           0.004304594796190386         0.6236781911478039 1.0000   
         H         H         1.0       0.2557359302219591  0.0063497975529778206        0.6197758234129038 1.0000   
         H         H         1.0       0.24938676519537484           0.9776747039470698 0.7686390118974946 1.0000   
         H         H         1.0       0.28081186208967696           0.9748287795077123 0.7799364742536561 1.0000   
         H         H         1.0       0.19731663691482557           0.9746167200011835 0.6984931269253591 1.0000   
         H         H         1.0       0.18053943663791489           0.972196903481715  0.7851515848843337 1.0000   
         H         H         1.0       0.21750209343783664           0.002808308832302986         0.8712302217422476 1.0000   
         H         H         1.0       0.23363204285763065           0.005039117273794025         0.7874915049703725 1.0000   
         H         H         1.0       0.23599000609269577           0.024876343322142835         0.6952150668913221 1.0000   
         H         H         1.0       0.22625745368317923           0.04791168116800271          0.6465475756764272 1.0000   
         H         H         1.0       0.1932101679280742  0.015718868743444636         0.5467119127123625 1.0000   
         H         H         1.0       0.20459952292387587           0.9917495305958535 0.6003198538959547 1.0000   
         C         C         1.0       0.2894246392536241  0.8692366741290244  0.9316154073883645 1.0000   
         C         C         1.0       0.27478496848993983           0.8674703600519603 0.9621435851956168 1.0000   
         C         C         1.0       0.27080179220579087           0.8526416302704779 0.9912633227832155 1.0000   
         C         C         1.0       0.2821146793655386  0.8398018171392557  0.99557807318365   1.0000   
         C         C         1.0       0.2976801871246614  0.8420994397153646  0.9702219020134238 1.0000   
         C         C         1.0       0.3009939298546568  0.8565240605988949  0.9364808574444011 1.0000   
         H         H         1.0       0.26682322895623567           0.878442877127459  0.9659747109679482 1.0000   
         H         H         1.0       0.25887377964103025           0.8514046019131672 0.016228617486199415         1.0000   
         H         H         1.0       0.30788885117849113           0.8328509537694853 0.9761869465182741 1.0000   
         H         H         1.0       0.3135157664797378  0.8567000868831433  0.9172685817150774 1.0000   
         C         C         1.0       0.2962587864411933  0.8018808505570306  0.9650064945883348 1.0000   
         C         C         1.0       0.2882369704366208  0.8057713368773195  0.01566232341291718          1.0000   
         C         C         1.0       0.2898061982441127  0.7937075234890895  0.05821555452978422          1.0000   
         C         C         1.0       0.29927795899738796           0.7791167346512177 0.05460040289456325          1.0000   
         C         C         1.0       0.30676434867596925           0.7757908625363816 0.00432245844150736          1.0000   
         C         C         1.0       0.30622762795852626           0.788047832591135  0.9598292638103181 1.0000   
         C         C         1.0       0.276079424542742   0.8216885157563096  0.024382925163164204         1.0000   
         C         C         1.0       0.25935964577520565           0.8146526258184988 0.9993884662923848 1.0000   
         C         C         1.0       0.24932884130943428           0.8024199716781879 0.02772517318016421          1.0000   
         C         C         1.0       0.23445407662610263           0.7959452680501488 0.004631797547411942         1.0000   
         C         C         1.0       0.22893650052948875           0.8010178555289597 0.9515270826152968 1.0000   
         C         C         1.0       0.2388281384382544  0.8123886682494367  0.9204396115625735 1.0000   
         C         C         1.0       0.25363518576236166           0.8185339949563301 0.9446470553038713 1.0000   
         C         C         1.0       0.289633380757474   0.8277593741576101  0.12218400057303086          1.0000   
         C         C         1.0       0.2902212093206126  0.8256696443016205  0.17987162192890363          1.0000   
         C         C         1.0       0.27570133965127547           0.8226205984048954 0.21177509066151123          1.0000   
         C         C         1.0       0.2608294607682218  0.8264392786084256  0.18247311785007692          1.0000   
         C         C         1.0       0.26082180025700996           0.8280434511767545 0.12474456805720585          1.0000   
         C         C         1.0       0.2747357095522705  0.8266787284954604  0.09213419221575304          1.0000   
         C         C         1.0       0.27694436847423964           0.8147897864180864 0.2735229996482286 1.0000   
         C         C         1.0       0.31486296642481537           0.7758219571634779 0.2919649041406316 1.0000   
         C         C         1.0       0.31143380231766443           0.7871546825238425 0.3353091318244127 1.0000   
         C         C         1.0       0.2999141198884575  0.7995383720961247  0.3282537453658482 1.0000   
         C         C         1.0       0.2912839446358706  0.8012267426315797  0.2780622618918653 1.0000   
         C         C         1.0       0.29490950974025193           0.7904720302381786 0.2348729442551974 1.0000   
         C         C         1.0       0.3065708433555655  0.7782352231773038  0.24246163421999134          1.0000   
         C         C         1.0       0.2605091812172593  0.8038310708270476  0.28942278794938325          1.0000   
         C         C         1.0       0.25336671642758424           0.7922650318141862 0.24970142678625862          1.0000   
         C         C         1.0       0.23889014805136924           0.7838355756539047 0.25873723264978166          1.0000   
         C         C         1.0       0.23123853697504854           0.7860205869324549 0.30969663217220517          1.0000   
         C         C         1.0       0.23720660380326256           0.7968393823352181 0.3508631371705437 1.0000   
         C         C         1.0       0.2521763174149364  0.8056740589040432  0.3400890394193142 1.0000   
         C         C         1.0       0.2660752883746181  0.8433644322188787  0.31726060618540486          1.0000   
         C         C         1.0       0.26886432156429096           0.8589760407073395 0.33976413798292   1.0000   
         C         C         1.0       0.2845813787280971  0.8638119282294127  0.35484594821062293          1.0000   
         C         C         1.0       0.29794315843774644           0.8536028629816418 0.34349976416638417          1.0000   
         C         C         1.0       0.29524319097370355           0.8382907544515014 0.31726727002136607          1.0000   
         C         C         1.0       0.27940017015157775           0.8324416982725142 0.30509064687733484          1.0000   
         H         H         1.0       0.2940943340407494  0.8097845231130776  0.9301912615204313 1.0000   
         H         H         1.0       0.28296744052735906           0.7948034221714857 0.09625013748923417          1.0000   
         H         H         1.0       0.29751950092654383           0.7695340793301495 0.08878890547847607          1.0000   
         H         H         1.0       0.31439115092412734           0.7859398343356135 0.9244332724509096 1.0000   
         H         H         1.0       0.2529951366471669  0.7972868740735248  0.06905799956540215          1.0000   
         H         H         1.0       0.2276181952951647  0.7866689730035415  0.028575330481253047         1.0000   
         H         H         1.0       0.2348240948958028  0.816919211171669   0.8799350780175952 1.0000   
         H         H         1.0       0.2617862433242098  0.8263759702593639  0.9203652070303453 1.0000   
         H         H         1.0       0.3016388636007153  0.8283116690960198  0.09717510877901447          1.0000   
         H         H         1.0       0.3020684671931784  0.8248189725377493  0.20492262981508538          1.0000   
         H         H         1.0       0.248565409698749   0.8254288682119124  0.20387843048323073          1.0000   
         H         H         1.0       0.24830644074641842           0.829019721500267  0.10484420782880115          1.0000   
         H         H         1.0       0.31667386044415813           0.7859196404923287 0.37757677432149467          1.0000   
         H         H         1.0       0.29942364963067675           0.8089894592105772 0.3619619077629897 1.0000   
         H         H         1.0       0.2877016718757896  0.7899062256068414  0.19722263560714698          1.0000   
         H         H         1.0       0.30864727288679017           0.7686423573716185 0.20669803974016346          1.0000   
         H         H         1.0       0.2595582028200766  0.7910512862956568  0.2093270282882413 1.0000   
         H         H         1.0       0.2341242402448149  0.7766225490922384  0.22504065454144379          1.0000   
         H         H         1.0       0.2289440189666225  0.7982686466430263  0.38873752251123034          1.0000   
         H         H         1.0       0.2581009153566715  0.8128695202725116  0.3739415606043204 1.0000   
         H         H         1.0       0.2536236177314001  0.8388313730998254  0.3047312928468046 1.0000   
         H         H         1.0       0.2569271482120345  0.8661524112462188  0.3456646620643855 1.0000   
         H         H         1.0       0.3112085669062669  0.8563216822856281  0.35098255005685325          1.0000   
         H         H         1.0       0.30552090648488334           0.8334341633651523 0.2952188607545789 1.0000   
         C         C         1.0       0.30553723403026756           0.8753984599971069 0.7288932637583387 1.0000   
         C         C         1.0       0.28916597526288    0.8717299423716097  0.7157453119736398 1.0000   
         C         C         1.0       0.28606944826048786           0.8577223555085316 0.683803965822756  1.0000   
         C         C         1.0       0.299025609628931   0.8482058035783303  0.6614809258598593 1.0000   
         C         C         1.0       0.3153704420315226  0.8521591052820319  0.6748607320346782 1.0000   
         C         C         1.0       0.31846360331553997           0.8656194510031341 0.7069791264480517 1.0000   
         H         H         1.0       0.28008158223264173           0.8803464211065813 0.7315526611774518 1.0000   
         H         H         1.0       0.27276464360692665           0.8559807960013978 0.6739684960520302 1.0000   
         H         H         1.0       0.3245949602686021  0.8466109072887467  0.6491386996501227 1.0000   
         H         H         1.0       0.3317131862925975  0.869208189658729   0.7155333645918475 1.0000   
         C         C         1.0       0.30625330019728425           0.8167371086794174 0.5294045104832872 1.0000   
         C         C         1.0       0.30601487831125485           0.8215436456138362 0.5864684455307977 1.0000   
         C         C         1.0       0.31465468076505765           0.8101997270285934 0.6202617733433343 1.0000   
         C         C         1.0       0.32142676422646627           0.7951776077865449 0.6030668115918933 1.0000   
         C         C         1.0       0.31997292693673596           0.7903771753748043 0.5476579166015145 1.0000   
         C         C         1.0       0.31277167432402775           0.8019528988401957 0.5116169445958522 1.0000   
         C         C         1.0       0.29360291277207523           0.8354806854529094 0.6128505375491251 1.0000   
         C         C         1.0       0.2904522368405047  0.8479798306134692  0.5655798675570077 1.0000   
         C         C         1.0       0.27427575969354107           0.8509716132416492 0.5429828364962894 1.0000   
         C         C         1.0       0.27296519085066595           0.8635401608239274 0.5027137423713438 1.0000   
         C         C         1.0       0.2868239859710253  0.8732412016478928  0.4856833310245342 1.0000   
         C         C         1.0       0.30249245895094523           0.868457584157857  0.5018678296001493 1.0000   
         C         C         1.0       0.3050123220414416  0.8551902854900894  0.5395000954719379 1.0000   
         C         C         1.0       0.27691050944343243           0.8180699442604148 0.6872180449544485 1.0000   
         C         C         1.0       0.26839797393141096           0.8045522165354623 0.7057297492839805 1.0000   
         C         C         1.0       0.2628955522783666  0.7923088723277595  0.6676914208854633 1.0000   
         C         C         1.0       0.26286803608341    0.7971983006412862  0.609804755939402  1.0000   
         C         C         1.0       0.26875374775598515           0.8124055743208751 0.5931215886345819 1.0000   
         C         C         1.0       0.27806942618762964           0.8226823127550302 0.6296285686214028 1.0000   
         C         C         1.0       0.2549964491152395  0.7744683548737479  0.689589510469986  1.0000   
         C         C         1.0       0.3059708139786528  0.7540114589419928  0.7159025801349336 1.0000   
         C         C         1.0       0.2969600593230434  0.7606564594184569  0.7600202771296027 1.0000   
         C         C         1.0       0.28001569145760363           0.7656489107855802 0.7527034936218268 1.0000   
         C         C         1.0       0.27273067526379824           0.7658410744653451 0.7006945074803216 1.0000   
         C         C         1.0       0.2831337890418705  0.7605624633758323  0.6577636666980327 1.0000   
         C         C         1.0       0.29878785882903475           0.7537604844312116 0.663450959549898  1.0000   
         C         C         1.0       0.2431963049857632  0.7634803509265222  0.6456902773811438 1.0000   
         C         C         1.0       0.23156481095659742           0.7714434950356119 0.6096667106578861 1.0000   
         C         C         1.0       0.22204658115737727           0.7622909530015317 0.5725677454375513 1.0000   
         C         C         1.0       0.22225597901424046           0.7450168889223007 0.5725825192510376 1.0000   
         C         C         1.0       0.23338513799703087           0.736557518805061  0.6079321616580645 1.0000   
         C         C         1.0       0.24362300176358395           0.7456689983984851 0.6436100796364571 1.0000   
         C         C         1.0       0.24051501293762356           0.7618418136805968 0.7806391502343124 1.0000   
         C         C         1.0       0.23205432051227762           0.7640358367520413 0.8305720217318492 1.0000   
         C         C         1.0       0.2228259584460346  0.7779814676016064  0.8407233109938423 1.0000   
         C         C         1.0       0.22246260130852474           0.7906112146671012 0.7988174460977121 1.0000   
         C         C         1.0       0.2331484272880863  0.7888518860952008  0.752881217079809  1.0000   
         C         C         1.0       0.24260896972573884           0.7750016131450527 0.7426612601211238 1.0000   
         H         H         1.0       0.2994033113548355  0.8233546080491967  0.4967375508749164 1.0000   
         H         H         1.0       0.31459152480385727           0.8135839935648242 0.6649755278982628 1.0000   
         H         H         1.0       0.3263998643343484  0.7874498424468038  0.6346897352556713 1.0000   
         H         H         1.0       0.3119512345572378  0.7991544492644437  0.4666918087494404 1.0000   
         H         H         1.0       0.2640740757692225  0.844086342017866   0.5604345408802717 1.0000   
         H         H         1.0       0.2603990409955535  0.8656677789570562  0.48218753295645744          1.0000   
         H         H         1.0       0.313204386508576   0.8749808055218218  0.4831233801805048 1.0000   
         H         H         1.0       0.31787721419669523           0.85166150063913   0.5516886221973394 1.0000   
         H         H         1.0       0.2830367607057344  0.8245658509054316  0.7211581916970049 1.0000   
         H         H         1.0       0.2676602778016849  0.8021305844520891  0.7494392841538705 1.0000   
         H         H         1.0       0.25744647777904206           0.7889264577545612 0.5783446854538922 1.0000   
         H         H         1.0       0.2698336693823203  0.815356791087424   0.5495313183311628 1.0000   
         H         H         1.0       0.3039340649979118  0.7617216421100879  0.799611070398334  1.0000   
         H         H         1.0       0.2743352699479387  0.7709016898472049  0.7894474131104489 1.0000   
         H         H         1.0       0.2781665850185333  0.7610294529191538  0.6152541805163291 1.0000   
         H         H         1.0       0.30634034235594343           0.752897061282539  0.6277996951033361 1.0000   
         H         H         1.0       0.23021291291007853           0.7846303881982903 0.606697364287658  1.0000   
         H         H         1.0       0.21521004893070173           0.7692949120598549 0.5410777217287547 1.0000   
         H         H         1.0       0.2332795343928592  0.7228270835448745  0.6149443997000319 1.0000   
         H         H         1.0       0.2516277934825761  0.7382889979185484  0.6711762569328922 1.0000   
         H         H         1.0       0.24703568196495493           0.7498420673992142 0.7726384134760245 1.0000   
         H         H         1.0       0.23342003590473076           0.7544408717965939 0.8587763870745568 1.0000   
         H         H         1.0       0.2139004063896317  0.8017348187780654  0.8046648887501748 1.0000   
         H         H         1.0       0.2336767803150621  0.7977432377201908  0.721332267579013  1.0000   
         C         C         1.0       0.21200713627339912           0.7946088498386069 0.9298783625596247 1.0000   
         C         C         1.0       0.21339310453981372           0.7782159503544586 0.8980462622604529 1.0000   
         H         H         1.0       0.20544761782425824           0.8039276599451358 0.9048154014696974 1.0000   
         H         H         1.0       0.20365783397099121           0.7926201535942928 0.9661421312326887 1.0000   
         H         H         1.0       0.19977094872244014           0.7762665312489672 0.889080844158166  1.0000   
         H         H         1.0       0.2174958970611363  0.7669026624441597  0.924045981376165  1.0000   
         C         C         1.0       0.28862486806526033           0.8812332427275892 0.37834222662622075          1.0000   
         C         C         1.0       0.283816137806933   0.8862488878111318  0.4412326530302839 1.0000   
         H         H         1.0       0.2834988107532106  0.8911257290330391  0.34668418717029026          1.0000   
         H         H         1.0       0.30316252806842436           0.8820717746055935 0.37851590142649627          1.0000   
         H         H         1.0       0.27003633051521275           0.8898651610554635 0.4415558769859946 1.0000   
         H         H         1.0       0.29176069261488813           0.8966081115914324 0.4498238025601125 1.0000   
         C         C         1.0       0.3141693572271188  0.906553511593553   0.7147042790604868 1.0000   
         C         C         1.0       0.3094546140734205  0.8924570978493721  0.7553261800676524 1.0000   
         H         H         1.0       0.3253299901127098  0.9041524570117403  0.6867712294222553 1.0000   
         H         H         1.0       0.3182330080542366  0.9171869100960579  0.7404395595156272 1.0000   
         H         H         1.0       0.2984309004316059  0.8968115799444614  0.7801188667950287 1.0000   
         H         H         1.0       0.32012446458511534           0.889748593324796  0.7852808230597601 1.0000   
         C         C         1.0       0.19282064764817114           0.9657372560010035 0.9184768197158704 1.0000   
         C         C         1.0       0.18727076627218397           0.9825011392135161 0.8892165897553997 1.0000   
         H         H         1.0       0.18847454116534484           0.9547232482186336 0.894274971229249  1.0000   
         H         H         1.0       0.18353091846131658           0.9636566974304496 0.9556614381603219 1.0000   
         H         H         1.0       0.18838619747838678           0.9930333996776195 0.9177663517539729 1.0000   
         H         H         1.0       0.17370204330445796           0.9829038889372799 0.8795710516767173 1.0000   
         C         C         1.0       0.22181801610918314           0.8864550602125478 0.37695126669283696          1.0000   
         C         C         1.0       0.21333246291467303           0.8930398552786556 0.4282814593439845 1.0000   
         H         H         1.0       0.2306714218343494  0.8764393199088133  0.38727824250751897          1.0000   
         H         H         1.0       0.21268233121942265           0.8788777436842613 0.35009274972629867          1.0000   
         H         H         1.0       0.20944659071749533           0.8809479945760809 0.44920145436443837          1.0000   
         H         H         1.0       0.20104503944714514           0.8996468547997828 0.416881519086226  1.0000   
         C         C         1.0       0.3035483636339307  0.8996507410466846  0.9221174218100708 1.0000   
         C         C         1.0       0.2923977605945992  0.8853937354264085  0.8947272076363337 1.0000   
         H         H         1.0       0.3107963292338706  0.904035827811102   0.885264438169835  1.0000   
         H         H         1.0       0.3118043418858801  0.8945204866242803  0.9528667356390207 1.0000   
         H         H         1.0       0.29826623914433426           0.8807300017923411 0.8575803390085893 1.0000   
         H         H         1.0       0.2806925766387871  0.8909191005669795  0.8794137385071014 1.0000   
         C         C         1.0       0.33526737632969533           0.7630512772171796 0.043006405438492434         1.0000   
         C         C         1.0       0.31882231536617095           0.7602524423590926 0.007494956480446957         1.0000   
         H         H         1.0       0.3332039958754664  0.7637053548783124  0.09130937311431708          1.0000   
         H         H         1.0       0.3432031094229385  0.7521576663025029  0.03683576413232981          1.0000   
         H         H         1.0       0.3119348235924401  0.7486931200800585  0.0210217289824981 1.0000   
         H         H         1.0       0.3236184795711414  0.7584287677051638  0.9642531784988261 1.0000   
         C         C         1.0       0.3367848272604873  0.7465570962805389  0.693841802556454  1.0000   
         C         C         1.0       0.32173906210393755           0.7429746329474767 0.7287995384497519 1.0000   
         H         H         1.0       0.3322931332833676  0.7483631839085304  0.6504170119609438 1.0000   
         H         H         1.0       0.34464986884530274           0.7349316904035342 0.6936294444197085 1.0000   
         H         H         1.0       0.3254483902412495  0.7437917530953889  0.7746342406710132 1.0000   
         H         H         1.0       0.3173237362377492  0.7298917246321     0.7210770074903405 1.0000   
         C         C         1.0       0.3761744021842783  0.8724129971110701  0.6512853470591655 1.0000   
         C         C         1.0       0.3879689729182571  0.8781975085783661  0.6036853301411232 1.0000   
         H         H         1.0       0.36300998217917674           0.8769459394076081 0.6414016305321856 1.0000   
         H         H         1.0       0.38011106053231913           0.8792708970310328 0.6880513306502632 1.0000   
         H         H         1.0       0.38585392731407    0.8921914490966678  0.5984395022244753 1.0000   
         H         H         1.0       0.40135714590087274           0.8776481896057597 0.6167041206162708 1.0000   
         C         C         1.0       0.44978123834125816           0.7992167698807846 0.08628295038888223          1.0000   
         C         C         1.0       0.44263077630556413           0.8156033072471452 0.06107804574794651          1.0000   
         H         H         1.0       0.46268037942680984           0.8023638975782738 0.09818508079027932          1.0000   
         H         H         1.0       0.45072546828317506           0.7893108346657126 0.05354236290654191          1.0000   
         H         H         1.0       0.4500511239665578  0.8171070185773798  0.020051819581475172         1.0000   
         H         H         1.0       0.4454841628113253  0.8259999455052816  0.08892690868575026          1.0000   
         C         C         1.0       0.3481513018823138  0.7780190716427715  0.4961774247899178 1.0000   
         C         C         1.0       0.32960494978800375           0.775435616854878  0.5222036393571351 1.0000   
         H         H         1.0       0.3567428018770025  0.7757607980693544  0.5331748956841856 1.0000   
         H         H         1.0       0.35092587208634957           0.7673116170306671 0.46631748865887357          1.0000   
         H         H         1.0       0.3291523340209065  0.7654362564683399  0.5549959561013158 1.0000   
         H         H         1.0       0.3220270579249722  0.771876542644512   0.48746984379858577          1.0000   
         C         C         1.0       0.34235317873334714           0.7578665607676253 0.26305047153169325          1.0000   
         C         C         1.0       0.3268595345671411  0.7613870809701333  0.3030067158631582 1.0000   
         H         H         1.0       0.33839993136308383           0.7597005493957751 0.218106009137303  1.0000   
         H         H         1.0       0.345882624934503   0.7444240173373634  0.2631074574431959 1.0000   
         H         H         1.0       0.3198160079838338  0.7489680907898261  0.3012035185293463 1.0000   
         H         H         1.0       0.33231313934064616           0.7614438833980058 0.3453027058883369 1.0000   
         C         C         1.0       0.33232143484547316           0.003699231104040912         0.01895450540733412          1.0000   
         C         C         1.0       0.3140309785999506  0.008036169110763103         0.9991178035292546 1.0000   
         H         H         1.0       0.33111625622107366           0.9988671264132124 0.0660482353920262 1.0000   
         H         H         1.0       0.33873345702971375           0.01557307513542483          0.024858827925368088         1.0000   
         H         H         1.0       0.31453103286780926           0.014081890621639115         0.9548966649629087 1.0000   
         H         H         1.0       0.30881039022885015           0.017844868012057757         0.027501792324842622         1.0000   
         C         C         1.0       0.30860126892108675           0.9744693828850194 0.6497922934416845 1.0000   
         C         C         1.0       0.3047828189723757  0.9867521466766737  0.6974027860751164 1.0000   
         H         H         1.0       0.3033386343307876  0.9805914097065628  0.6091398379748095 1.0000   
         H         H         1.0       0.30152157992821915           0.9623152843724988 0.6529170264498224 1.0000   
         H         H         1.0       0.31007154447882584           0.9988954996980469 0.6876307897424859 1.0000   
         H         H         1.0       0.31162448591073194           0.9829036017475313 0.738207003108519  1.0000   
         C         C         1.0       0.3535046870969358  0.9041996535422969  0.04684834301252394          1.0000   
         C         C         1.0       0.34331951509266206           0.8881898153927412 0.02686093842605719          1.0000   
         H         H         1.0       0.36232779030805295           0.900014547855667  0.08216876409751639          1.0000   
         H         H         1.0       0.34502932145207066           0.9131802703843843 0.06984906863792717          1.0000   
         H         H         1.0       0.3356341462577428  0.8919593304964566  0.988687840442905  1.0000   
         H         H         1.0       0.3342010056235275  0.8841411413864594  0.06038802352295525          1.0000   
         C         C         1.0       0.3242314236990157  0.9829198345611668  0.44396281276988114          1.0000   
         C         C         1.0       0.30712183847461727           0.9752720474481581 0.42198019121974195          1.0000   
         H         H         1.0       0.324245406595983   0.9832638622506522  0.4872343653874847 1.0000   
         H         H         1.0       0.3252403053599761  0.9959006337554827  0.4300663898854447 1.0000   
         H         H         1.0       0.2973793582607139  0.9844068453750102  0.40951091660704375          1.0000   
         H         H         1.0       0.30964567227966094           0.9707470630966831 0.38002274132515346          1.0000   
         C         C         1.0       0.329912183997099   0.9579801660154067  0.14468174423970473          1.0000   
         C         C         1.0       0.32508463122210524           0.9503748435810477 0.20199955174279277          1.0000   
         H         H         1.0       0.32212466245212035           0.9692875589243347 0.1351719098829163 1.0000   
         H         H         1.0       0.3270886787419846  0.9499600583216556  0.1102524996719029 1.0000   
         H         H         1.0       0.33216117356692193           0.9566158111028913 0.23671187708384772          1.0000   
         H         H         1.0       0.3298062155224711  0.9375356743070059  0.20269716238921429          1.0000   
         C         C         1.0       0.43351086921421217           0.9172301409592946 0.5036373096201838 1.0000   
         C         C         1.0       0.4230478480650694  0.9070641642547347  0.5427937388589416 1.0000   
         H         H         1.0       0.4441504133378506  0.9100863892584868  0.48348718910474753          1.0000   
         H         H         1.0       0.4393360614300272  0.9270728235442255  0.5305581022625498 1.0000   
         H         H         1.0       0.4314953633585282  0.9001345169239855  0.5708403125247646 1.0000   
         H         H         1.0       0.41582269419875945           0.8983678510855064 0.5153643016936328 1.0000   
         C         C         1.0       0.455119173954845   0.9512516595501196  0.9889214911354949 1.0000   
         C         C         1.0       0.4512569053691011  0.9648044392489967  0.9424221752170908 1.0000   
         H         H         1.0       0.467675673498692   0.9535005786372108  0.002160089663047149         1.0000   
         H         H         1.0       0.4561308125953562  0.9390113828311585  0.9677447171704926 1.0000   
         H         H         1.0       0.4606590038151678  0.9637174647640455  0.9076966181629516 1.0000   
         H         H         1.0       0.4555030594771659  0.9769049082061665  0.9615937006685082 1.0000   
         C         C         1.0       0.3358944858803447  0.8984318829406797  0.24610631262593155          1.0000   
         C         C         1.0       0.3454382462858808  0.883620943291859   0.21829898740857703          1.0000   
         H         H         1.0       0.32719250571166525           0.8941121128799754 0.2792465161784934 1.0000   
         H         H         1.0       0.3280395187394391  0.9064459403762817  0.2178167628380384 1.0000   
         H         H         1.0       0.3540468730134333  0.8879548014632253  0.1863297799279478 1.0000   
         H         H         1.0       0.33549760492088476           0.8761544806822331 0.19501933678673045          1.0000   
         C         C         1.0       0.4852408101542102  0.42930220134717895           0.5836091276258095 1.0000   
         C         C         1.0       0.495012589138873   0.42832838137883467           0.6410403146518172 1.0000   
         H         H         1.0       0.47594215421678737           0.4185613506448155 0.581885791180839  1.0000   
         H         H         1.0       0.493409210841814   0.42708438615852895           0.547686651729676  1.0000   
         H         H         1.0       0.5055315858644682  0.43819857081755764           0.6382002708485168 1.0000   
         H         H         1.0       0.5018250163989852  0.41613281373857325           0.6507469178691112 1.0000   
         C         C         1.0       0.47693226252313653           0.5285005001052917 0.13386656730807484          1.0000   
         C         C         1.0       0.464103789587208   0.539711762776791   0.10474723171765365          1.0000   
         H         H         1.0       0.4841232172759363  0.5367851470449936  0.15960710424723323          1.0000   
         H         H         1.0       0.4865613524999353  0.5241923751574695  0.10214082616570992          1.0000   
         H         H         1.0       0.47062075908137746           0.551719977805742  0.10089886751212315          1.0000   
         H         H         1.0       0.45259087464122044           0.5432106868877066 0.13269859119141225          1.0000   
         C         C         1.0       0.4502298383253994  0.3747129205160204  0.9718177750805638 1.0000   
         C         C         1.0       0.4452077267701789  0.390362464131458   0.0068123927225189895        1.0000   
         H         H         1.0       0.45038951361356494           0.3646423403281086 0.003022394098619152         1.0000   
         H         H         1.0       0.46373766520840776           0.3747762378351011 0.9553369333395147 1.0000   
         H         H         1.0       0.4536329903165746  0.3911099813323375  0.04366516349393579          1.0000   
         H         H         1.0       0.4325473997128935  0.38677403191402704           0.02356431369916656          1.0000   
         C         C         1.0       0.49691503372371343           0.3276121921342852 0.6520885339178694 1.0000   
         C         C         1.0       0.49383613404228255           0.3452089321374556 0.6773423507744847 1.0000   
         H         H         1.0       0.5097386283500719  0.3288525847327164  0.6355431681490942 1.0000   
         H         H         1.0       0.4981970467064372  0.3180251684298796  0.6862050933897903 1.0000   
         H         H         1.0       0.49685305235712357           0.35479736132588424          0.6454542109534855 1.0000   
         H         H         1.0       0.5026470783633822  0.3481658202749942  0.7119677392815122 1.0000   
         C         C         1.0       0.44017036428922207           0.30402390941020374          0.08068527177823781          1.0000   
         C         C         1.0       0.43803999738814914           0.31573657395933996          0.029750852129628136         1.0000   
         H         H         1.0       0.4499823156809179  0.29451738900452235           0.07314549843613682          1.0000   
         H         H         1.0       0.4277705344660054  0.29658915432283234           0.08612874936462389          1.0000   
         H         H         1.0       0.45058083168508456           0.3201632090790609 0.016101763646860556         1.0000   
         H         H         1.0       0.4306178959563725  0.32757114600399834           0.037792207189564  1.0000   
         C         C         1.0       0.4903813263669847  0.39967489254975563           0.28557049403998713          1.0000   
         C         C         1.0       0.4913766559441943  0.4128450839584518  0.334117950416545  1.0000   
         H         H         1.0       0.5033737204281349  0.3946560189354485  0.2794000361500072 1.0000   
         H         H         1.0       0.49028777894371917           0.4066616748390488 0.24582160510840945          1.0000   
         H         H         1.0       0.5042229259784042  0.4166479428435163  0.34245400224184086          1.0000   
         H         H         1.0       0.4869001236996699  0.40706359961854305           0.37512521537184534          1.0000   
         C         C         1.0       0.3762537482054297  0.4556440517923463  0.6932318060842874 1.0000   
         C         C         1.0       0.3889064943106256  0.4416317109958838  0.6743109847597594 1.0000   
         H         H         1.0       0.3803651160040935  0.46832687518724936           0.6803346791568441 1.0000   
         H         H         1.0       0.37543315170690955           0.45642499956815746          0.741530131436643  1.0000   
         H         H         1.0       0.38220490347633185           0.4296823473845654 0.6763248195436531 1.0000   
         H         H         1.0       0.39389595129624044           0.4424965958421806 0.6319108770378485 1.0000   
         C         C         1.0       0.39211740010602225           0.520686742755039  0.6400770174622904 1.0000   
         C         C         1.0       0.3770943285412442  0.5081024953610497  0.6423871833581519 1.0000   
         H         H         1.0       0.38767040515965356           0.5329863281592561 0.6184729084548256 1.0000   
         H         H         1.0       0.39563111135291273           0.5254519602489439 0.6831686067439775 1.0000   
         H         H         1.0       0.37683762458755277           0.5010169144847625 0.682115964038661  1.0000   
         H         H         1.0       0.3779081438863274  0.4974153253338744  0.6100289219204447 1.0000   
         C         C         1.0       0.2552096392599459  0.4292622332669107  0.8347262138886418 1.0000   
         C         C         1.0       0.26079511439352426           0.41435605817280724          0.7931638263824585 1.0000   
         H         H         1.0       0.2504666598180156  0.42422606010203984           0.877238189887525  1.0000   
         H         H         1.0       0.2440145463963552  0.43313588124367164           0.8103627637468445 1.0000   
         H         H         1.0       0.25044004160890176           0.40584240626663626          0.7792008887079835 1.0000   
         H         H         1.0       0.2687085455583645  0.40548084936689527           0.8195396452833151 1.0000   
         C         C         1.0       0.2790452387586275  0.5320119755803419  0.304872682628859  1.0000   
         C         C         1.0       0.2934729787488927  0.5384873390009416  0.34276754082207556          1.0000   
         H         H         1.0       0.2748600228481273  0.5425288617223916  0.27604641441329136          1.0000   
         H         H         1.0       0.2682231246659167  0.5291591123835795  0.3304747312475252 1.0000   
         H         H         1.0       0.3048592412370281  0.533274188961315   0.32007736741760257          1.0000   
         H         H         1.0       0.2961382565315399  0.5525650564450336  0.34070260343474346          1.0000   
         C         C         1.0       0.36873592284080525           0.47291695278000173          0.2331335691439239 1.0000   
         C         C         1.0       0.3828229726267901  0.47677813902753113           0.18722864435806336          1.0000   
         H         H         1.0       0.369472317085585   0.48200103492831364           0.26779367595642106          1.0000   
         H         H         1.0       0.37178550614290384           0.46070612087954455          0.25369385577945436          1.0000   
         H         H         1.0       0.3825687935983696  0.48854136246200897           0.16396755531188914          1.0000   
         H         H         1.0       0.38067659743178006           0.46611039035299434          0.15378486202650238          1.0000   
         C         C         1.0       0.36886132508757835           0.5182460896918617 0.8247562547385717 1.0000   
         C         C         1.0       0.36333990665824323           0.49977985404450825          0.832088725878524  1.0000   
         H         H         1.0       0.36268177427755105           0.5283628880818552 0.8527236081855024 1.0000   
         H         H         1.0       0.36582332864669254           0.522864232867095  0.7817421651310351 1.0000   
         H         H         1.0       0.3707221656360115  0.4938175368162834  0.8675606090742894 1.0000   
         H         H         1.0       0.365591937664858   0.49305397937507234           0.7915517592065775 1.0000   
         C         C         1.0       0.36341709183504    0.38581459770953713           0.5881072058357657 1.0000   
         C         C         1.0       0.37742872487407203           0.39193120002141374          0.62727333852548   1.0000   
         H         H         1.0       0.37013173158395635           0.3766542163051583 0.5590549681930339 1.0000   
         H         H         1.0       0.3580140196027354  0.3958290202977013  0.5619060463557712 1.0000   
         H         H         1.0       0.38601913478687644           0.40002979780312886          0.6012754953339907 1.0000   
         H         H         1.0       0.37124535935248815           0.401234862438837  0.655143917561319  1.0000   
         C         C         1.0       0.38646457034063336           0.2744297553495462 0.632169808602019  1.0000   
         C         C         1.0       0.38987037742429387           0.2742592295429487 0.5668631216895502 1.0000   
         H         H         1.0       0.3948305993704729  0.2828840061650106  0.655871697196096  1.0000   
         H         H         1.0       0.39096829924624776           0.2617341925708743 0.6492754852759851 1.0000   
         H         H         1.0       0.386104028310765   0.2626731735632312  0.546922470187606  1.0000   
         H         H         1.0       0.3807695991967236  0.28345310977785965           0.5533658383617431 1.0000   
         C         C         1.0       0.2689598239836902  0.3867561183710426  0.47298182998661653          1.0000   
         C         C         1.0       0.28396928899268525           0.39569159784808167          0.4442644559679989 1.0000   
         H         H         1.0       0.25792655443370754           0.39536669189069823          0.479678244129993  1.0000   
         H         H         1.0       0.26611215535737975           0.37651124760344223          0.44350787291278854          1.0000   
         H         H         1.0       0.28100766384724357           0.40095702423530444          0.40332091918209023          1.0000   
         H         H         1.0       0.29384308117788766           0.38648920578434726          0.4319527748089602 1.0000   
         C         C         1.0       0.36591689000647204           0.3909469519203734 0.29276014685693397          1.0000   
         C         C         1.0       0.38082222893687506           0.38769978016631157          0.33606652336363146          1.0000   
         H         H         1.0       0.370812038536296   0.39619097369441136           0.25243413957281485          1.0000   
         H         H         1.0       0.35904784294110814           0.40228594862764466          0.30800707097090796          1.0000   
         H         H         1.0       0.38562684088606153           0.4007936149392944 0.3500572484384665 1.0000   
         H         H         1.0       0.375526015883004   0.3836903273836554  0.37781124013451167          1.0000   
         C         C         1.0       0.33254680558786975           0.2493305786489614 0.9370394796150822 1.0000   
         C         C         1.0       0.34024097513923696           0.24810879817633089          0.8767043269058651 1.0000   
         H         H         1.0       0.34183079029537977           0.24523047410241045          0.9685142362388179 1.0000   
         H         H         1.0       0.3221979394183794  0.2401581098042096  0.9420751248225759 1.0000   
         H         H         1.0       0.3433016505205722  0.2351779484482193  0.8700852430448024 1.0000   
         H         H         1.0       0.33163898279267473           0.2523233074613963 0.8411986206922464 1.0000   
         C         C         1.0       0.2789598860313609  0.3814934857678733  0.904641534118577  1.0000   
         C         C         1.0       0.28660397282328764           0.37381527450011276          0.9568914155830635 1.0000   
         H         H         1.0       0.2649303592848713  0.38051163035373936           0.9114948594823044 1.0000   
         H         H         1.0       0.2813597943330172  0.39493676015101964           0.899157247836254  1.0000   
         H         H         1.0       0.28057732340280384           0.3798211243736962 0.9936920548781768 1.0000   
         H         H         1.0       0.2997112519116491  0.3790230987343254  0.9593890106372539 1.0000   
         C         C         1.0       0.30320530571767074           0.27918854344895955          0.37077972857037234          1.0000   
         C         C         1.0       0.3155647639243258  0.2704425929974507  0.4132681943669872 1.0000   
         H         H         1.0       0.28980771775418795           0.2781554231553229 0.38155919729224574          1.0000   
         H         H         1.0       0.30456614097409584           0.27082910553620865          0.3336847439690961 1.0000   
         H         H         1.0       0.3163381915999829  0.2571488665561058  0.4053159801132102 1.0000   
         H         H         1.0       0.32898289785505835           0.27436016208342673          0.40431482791953954          1.0000   
         C         C         1.0       0.26704002648171343           0.4021910780451966 0.26412524007990446          1.0000   
         C         C         1.0       0.25986135393143267           0.41185051514043564          0.21106177911316173          1.0000   
         H         H         1.0       0.2566023128001873  0.39919842190039106           0.29189942285177145          1.0000   
         H         H         1.0       0.2750361423143465  0.41185790301144726           0.28861768424098433          1.0000   
         H         H         1.0       0.24709912024389225           0.41549993960758236          0.22387826873361313          1.0000   
         H         H         1.0       0.2571730357954503  0.403646240224258   0.17349948371898   1.0000   
         C         C         1.0       0.4445507809211145  0.0031636449813996492        0.5274203736059047 1.0000   
         C         C         1.0       0.4268535991087119  0.008476725723263634         0.5490657635777919 1.0000   
         H         H         1.0       0.44561646904182556           0.9902548416240632 0.5146383620165561 1.0000   
         H         H         1.0       0.4472115161952466  0.011824656612193785         0.49183338266603455          1.0000   
         H         H         1.0       0.4208283014372624  0.013493010217843437         0.5099155135583345 1.0000   
         H         H         1.0       0.4278588024626947  0.01872816534219024           0.577822109869788  1.0000   
         C         C         1.0       0.430736000969582   0.04421288739020235           0.029736828863420328         1.0000   
         C         C         1.0       0.4124969277182723  0.04253360277016349           0.050763757387410464         1.0000   
         H         H         1.0       0.43060477919084494           0.05669101260719045          0.006326263088781925         1.0000   
         H         H         1.0       0.43162315174458515           0.03489501870293221          0.9935824945741905 1.0000   
         H         H         1.0       0.40965740739767564           0.05321986715446192          0.07989471075305456          1.0000   
         H         H         1.0       0.4024697213269846  0.045219021320874075         0.015973790671815813         1.0000   
         C         C         1.0       0.5112762838540994  0.959985086246327   0.9278373787480704 1.0000   
         C         C         1.0       0.5154611766492144  0.9569517900922361  0.8656878093372943 1.0000   
         H         H         1.0       0.49780962645681887           0.9625420014331275 0.9345897001300756 1.0000   
         H         H         1.0       0.5120296166784043  0.9475307484158164  0.9470972248871611 1.0000   
         H         H         1.0       0.5084192363018037  0.9460463470058593  0.8495321076339019 1.0000   
         H         H         1.0       0.5294849562234624  0.9529113384362888  0.8650865422232084 1.0000   
         C         C         1.0       0.47494330593544004           0.0018836963911974536        0.3908346142550891 1.0000   
         C         C         1.0       0.4861088286137314  0.009552929553918288         0.4385431059852671 1.0000   
         H         H         1.0       0.46200620139693166           0.0006645470983732693        0.4027791015912896 1.0000   
         H         H         1.0       0.47909254756549036           0.987911116402499  0.38619319609295893          1.0000   
         H         H         1.0       0.47877159163737765           0.019546257765990838         0.45789785380801806          1.0000   
         H         H         1.0       0.484839441339981   0.0005971562756261761        0.4742292686923264 1.0000   
         C         C         1.0       0.6043772940008105  0.9596346302514163  0.5969981142515833 1.0000   
         C         C         1.0       0.5990644481234018  0.9676985255573687  0.5394535305170117 1.0000   
         H         H         1.0       0.6071803084277657  0.9463644588548016  0.5846966070046391 1.0000   
         H         H         1.0       0.5918566899639532  0.9586788334927827  0.619997255850833  1.0000   
         H         H         1.0       0.5901168715919757  0.9587006558369957  0.5205555093165448 1.0000   
         H         H         1.0       0.6093989619881262  0.9669729911591531  0.5078178500604399 1.0000   
         C         C         1.0       0.732144393811335   0.9328972169444142  0.06067178151885999          1.0000   
         C         C         1.0       0.7232785727476906  0.9261722743109115  0.005987425850963568         1.0000   
         H         H         1.0       0.7366424063465812  0.9220942704588373  0.08754919030989883          1.0000   
         H         H         1.0       0.7446159023064844  0.9378626167136903  0.050819949257126185         1.0000   
         H         H         1.0       0.7122237585852182  0.9180799040883431  0.017766790867163484         1.0000   
         H         H         1.0       0.7316828763340021  0.9188545776500918  0.9807050863322179 1.0000   
         C         C         1.0       0.7287048095889881  0.9702642821392665  0.6174689323160714 1.0000   
         C         C         1.0       0.7249222106061095  0.9636646639234715  0.5569045476146404 1.0000   
         H         H         1.0       0.7393804623869756  0.978865520057694   0.6149584655988392 1.0000   
         H         H         1.0       0.7338998566560372  0.9589658913039522  0.6426123496144222 1.0000   
         H         H         1.0       0.7353185552737755  0.9553627573383743  0.5490687823649764 1.0000   
         H         H         1.0       0.7149379726654618  0.9548055253419626  0.5592286008360029 1.0000   
         C         C         1.0       0.6147268722132533  0.9546990248021137  0.16813911413648097          1.0000   
         C         C         1.0       0.6107235950919975  0.974057156797436   0.16739573959699983          1.0000   
         H         H         1.0       0.6088895679395068  0.947970605768909   0.13113095867523944          1.0000   
         H         H         1.0       0.6079261709069066  0.9487211572126477  0.2050298688070632 1.0000   
         H         H         1.0       0.6210150005286257  0.9807233088474873  0.13944861286947574          1.0000   
         H         H         1.0       0.6108643924356914  0.9794685112392225  0.21138002965908073          1.0000   
         C         C         1.0       0.4382497904607682  0.20265871428994334           0.8027005811040476 1.0000   
         C         C         1.0       0.4413117004852349  0.2195179872626997  0.7692554874737904 1.0000   
         H         H         1.0       0.4257550079288653  0.19819213884843145           0.7983353129902582 1.0000   
         H         H         1.0       0.4399920392571985  0.2061957262861074  0.8496383401039406 1.0000   
         H         H         1.0       0.45499177446904404           0.22213633258726762          0.773033875868713  1.0000   
         H         H         1.0       0.43900874790274025           0.21551715979990732          0.7260283161727761 1.0000   
         C         C         1.0       0.5749314103379397  0.07175228364285813           0.9754585335571972 1.0000   
         C         C         1.0       0.5605624085552344  0.08375111407248093           0.9916293667266879 1.0000   
         H         H         1.0       0.5760452174443542  0.07128092050644041           0.931612820502603  1.0000   
         H         H         1.0       0.5868974994125757  0.07717477660929095           0.988670202279991  1.0000   
         H         H         1.0       0.5622031554566798  0.08781283235191162           0.036802898697416486         1.0000   
         H         H         1.0       0.548869966786596   0.07703290747619174           0.9932853266783409 1.0000   
         C         C         1.0       0.46337241236446736           0.07812875466399505          0.8273069724582304 1.0000   
         C         C         1.0       0.4753774595581321  0.06701836111123671           0.8605071415717    1.0000   
         H         H         1.0       0.45201185557334755           0.07866694156545528          0.8543470692668095 1.0000   
         H         H         1.0       0.4586695970826166  0.07202415170001819           0.7870354747328455 1.0000   
         H         H         1.0       0.46857923542767427           0.06385326400105007          0.8998561309058176 1.0000   
         H         H         1.0       0.48656945850007266           0.07507723667561361          0.8747790749649337 1.0000   
         C         C         1.0       0.4825588472602244  0.22717979111841405           0.33797070056328105          1.0000   
         C         C         1.0       0.4913559083337424  0.2447584454701258  0.3418915287177963 1.0000   
         H         H         1.0       0.47774708818044787           0.22275793907339667          0.37955148183787385          1.0000   
         H         H         1.0       0.47133655242263134           0.22910962517125563          0.3121441244353298 1.0000   
         H         H         1.0       0.4945245873347182  0.2490176413465325  0.2970738849544377 1.0000   
         H         H         1.0       0.5033269766032819  0.24396057294498774           0.3636226099899716 1.0000   
         C         C         1.0       0.5967089490489302  0.08215056943956345           0.5060348811381821 1.0000   
         C         C         1.0       0.5990326657285718  0.09747849605925074           0.5441630427720449 1.0000   
         H         H         1.0       0.6084305590640381  0.07439774171992841           0.5087967864511841 1.0000   
         H         H         1.0       0.5957701334018725  0.0876845974126208  0.46195026638139197          1.0000   
         H         H         1.0       0.6131387101961694  0.09953254820562352           0.5398682926605072 1.0000   
         H         H         1.0       0.5955771449946642  0.09349876550851133           0.5849878771411897 1.0000   
         C         C         1.0       0.5204565112610923  0.10272453052649921           0.2202669891868631 1.0000   
         C         C         1.0       0.5064944573908827  0.11440076933855017           0.24031887838676383          1.0000   
         H         H         1.0       0.527381042570293   0.10747248225266583           0.18272459021893395          1.0000   
         H         H         1.0       0.5298875596667283  0.10270941843286563           0.2546773081718433 1.0000   
         H         H         1.0       0.5005115111100095  0.11001513038177267           0.2810470406839724 1.0000   
         H         H         1.0       0.4960899426337096  0.11298236546384444           0.20948001496185314          1.0000   
         C         C         1.0       0.48715330858474304           0.14192049159739814          0.4609074217771224 1.0000   
         C         C         1.0       0.47514352890926087           0.15182568507529656          0.5006416820665888 1.0000   
         H         H         1.0       0.4869381076173659  0.12860713092659745           0.46616358626681625          1.0000   
         H         H         1.0       0.4830702864844937  0.14401422639664713           0.41933761316551116          1.0000   
         H         H         1.0       0.4619113131884904  0.14793701095240488           0.49815580172406554          1.0000   
         H         H         1.0       0.4754516044984576  0.1649045646506136  0.48784432661769594          1.0000   
         C         C         1.0       0.5716437603200935  0.20759306301853614           0.06210756013644003          1.0000   
         C         C         1.0       0.5579500080954414  0.2091306878437885  0.016542809575237793         1.0000   
         H         H         1.0       0.5779936985433158  0.21977334710705054           0.06889736311902306          1.0000   
         H         H         1.0       0.5822206288420685  0.19993170723377487           0.04449630021919183          1.0000   
         H         H         1.0       0.5462503346160277  0.2125442223920611  0.037087209655993776         1.0000   
         H         H         1.0       0.5608746264428995  0.22042238247637408           0.9898358449286541 1.0000   
         C         C         1.0       0.6489894455881001  0.05173844755073431           0.1574534628220985 1.0000   
         C         C         1.0       0.6643851603220449  0.04200827417170827           0.13315490583639658          1.0000   
         H         H         1.0       0.6492574052154074  0.055388278904099364         0.20432011159718066          1.0000   
         H         H         1.0       0.6376656991524404  0.04317735420098057           0.15498286477019646          1.0000   
         H         H         1.0       0.6616756016930829  0.03918574353579607           0.08932454308012439          1.0000   
         H         H         1.0       0.6767345313481785  0.05034512916450229           0.13222626442404595          1.0000   
         C         C         1.0       0.7381672583617335  0.051453955750250024         0.047839753712206834         1.0000   
         C         C         1.0       0.7229795987174716  0.04226551819885316           0.0731711803685704 1.0000   
         H         H         1.0       0.7448574972577947  0.042289121407177444         0.02278954948881795          1.0000   
         H         H         1.0       0.7453224846855915  0.054959773279104285         0.08693479826648431          1.0000   
         H         H         1.0       0.7117914711334008  0.05051393926378478           0.08351884999631243          1.0000   
         H         H         1.0       0.726831668389306   0.036944183546857357         0.11471279137659907          1.0000   
         C         C         1.0       0.611254156606391   0.10527394999136619           0.7975070169615023 1.0000   
         C         C         1.0       0.6088676567513401  0.12073094772919814           0.7595685526339908 1.0000   
         H         H         1.0       0.6195893157022857  0.09612271550439933           0.7744807518870815 1.0000   
         H         H         1.0       0.5992204826335809  0.09756789774552588           0.7981994009498695 1.0000   
         H         H         1.0       0.6076560047022431  0.11751978605360328           0.713561605676962  1.0000   
         H         H         1.0       0.6215155935526626  0.1272037576741633  0.7554438160137192 1.0000   
         C         C         1.0       0.6506700931928944  0.07356248478924554           0.6368786202301283 1.0000   
         C         C         1.0       0.6378473673121984  0.06013129268726991           0.6116618615451249 1.0000   
         H         H         1.0       0.6639425336605254  0.07069234117646195           0.6247670554885311 1.0000   
         H         H         1.0       0.6499804830185844  0.07232549599894988           0.6831963624221647 1.0000   
         H         H         1.0       0.637746566882942   0.0616503816894296  0.5641951121007444 1.0000   
         H         H         1.0       0.6246655002506394  0.06330925155898015           0.6214288492550187 1.0000   
         C         C         1.0       0.6630957152549587  0.07132119515079038           0.36865708340046127          1.0000   
         C         C         1.0       0.6756885662334765  0.08398474503789699           0.34563119481031335          1.0000   
         H         H         1.0       0.6525873137589341  0.07124776945546296           0.34070339632352836          1.0000   
         H         H         1.0       0.6571742196988357  0.07562766464923332           0.4084621377465878 1.0000   
         H         H         1.0       0.6804828103176653  0.08128598662363928           0.303170086654893  1.0000   
         H         H         1.0       0.686552349897168   0.08087047315585139           0.3729252859743812 1.0000   
         C         C         1.0       0.7184646140679403  0.13988038285919063           0.6773671307468064 1.0000   
         C         C         1.0       0.7192665834552628  0.12072896799274582           0.6936974800094133 1.0000   
         H         H         1.0       0.723596422804485   0.14789718097866633           0.7142479538296812 1.0000   
         H         H         1.0       0.7280352894804669  0.14194421762131115           0.6432849172804023 1.0000   
         H         H         1.0       0.7303444329319111  0.1154651439006282  0.6710600327671354 1.0000   
         H         H         1.0       0.7086964109373101  0.11300638645627897           0.67156335876703   1.0000   
         C         C         1.0       0.6046153904505487  0.17325451337066572           0.18352300163326363          1.0000   
         C         C         1.0       0.6147721109877392  0.17360536533163418           0.1263201504962714 1.0000   
         H         H         1.0       0.5943280225787204  0.16338242938527942           0.18267057639292206          1.0000   
         H         H         1.0       0.5975218027120418  0.18506476630012322           0.18651559857910396          1.0000   
         H         H         1.0       0.6069313331795326  0.17905120699490265           0.09273646342309028          1.0000   
         H         H         1.0       0.6267697398390872  0.18080489710570438           0.13140603626545613          1.0000   
         C         C         1.0       0.5892963678046007  0.197667380569966   0.6702486651748053 1.0000   
         C         C         1.0       0.5975155641078862  0.18703584393362474           0.7155049124077831 1.0000   
         H         H         1.0       0.5984440186909709  0.20700193046325738           0.6548751790360271 1.0000   
         H         H         1.0       0.5798501481613298  0.2063123911816892  0.688379196759215  1.0000   
         H         H         1.0       0.5884662620328547  0.1790419638672121  0.7384084106544568 1.0000   
         H         H         1.0       0.6031478032190737  0.19555165280913564           0.7463936568061472 1.0000   
         C         C         1.0       0.19088603955613365           0.053035479472064884         0.5242687553004548 1.0000   
         C         C         1.0       0.20786515547767473           0.04791345529167401          0.5479624275060225 1.0000   
         H         H         1.0       0.18551043694133304           0.04180126568033127          0.5046492094839362 1.0000   
         H         H         1.0       0.19358556615760805           0.06195528644422765          0.4908495269339575 1.0000   
         H         H         1.0       0.21511204002373352           0.044022428944288094         0.512717891632157  1.0000   
         H         H         1.0       0.21308635839143605           0.05915358359567513          0.5712719082969657 1.0000   
         C         C         1.0       0.23423377723979233           0.004711226526014967         0.4435626781990141 1.0000   
         C         C         1.0       0.22689728010071075           0.9872815042271212 0.4305894491184133 1.0000   
         H         H         1.0       0.24845317541017575           0.0037339008340215862        0.4427032680744143 1.0000   
         H         H         1.0       0.23119189244605332           0.0075943625679575355        0.4893091718909295 1.0000   
         H         H         1.0       0.22925129092172736           0.9804197759291083 0.46994581371818256          1.0000   
         H         H         1.0       0.21355848903648572           0.9883345464215032 0.4254351737215862 1.0000   
         C         C         1.0       0.21545946633337293           0.018077882284323943         0.08128950599897289          1.0000   
         C         C         1.0       0.21995000734776496           0.029250237882117558         0.028890954789925427         1.0000   
         H         H         1.0       0.22574886167930622           0.009530281988383127         0.08706801258283092          1.0000   
         H         H         1.0       0.20522712450439884           0.009197114163620235         0.07595708432777104          1.0000   
         H         H         1.0       0.22926916828778235           0.03881995337378297          0.03854466427788972          1.0000   
         H         H         1.0       0.2273128938326077  0.01999693644842382           0.0014519250316842314        1.0000   
         C         C         1.0       0.1043800552249805  0.05027279827845166           0.5010430298100411 1.0000   
         C         C         1.0       0.09233809261551951           0.05914659472448003          0.5440831756693799 1.0000   
         H         H         1.0       0.11191626992660916           0.04150028742129219          0.5239521371768663 1.0000   
         H         H         1.0       0.09698298037940134           0.04358950602196221          0.47167808430701924          1.0000   
         H         H         1.0       0.08295314981522117           0.049888917931102394         0.5558940104267782 1.0000   
         H         H         1.0       0.08662063783344198           0.06972937743441876          0.5224885561378346 1.0000   
         C         C         1.0       0.1195541339510311  0.9815635505220767  0.9732824627957303 1.0000   
         C         C         1.0       0.1313443145230974  0.9921469164943465  0.0136764979182602 1.0000   
         H         H         1.0       0.11651897687684132           0.9694029011109958 0.9953328944660946 1.0000   
         H         H         1.0       0.1272567798516313  0.9777770957660217  0.9358072185109542 1.0000   
         H         H         1.0       0.12476418521808208           0.9948872399861042 0.05390739259205479          1.0000   
         H         H         1.0       0.1436994452583682  0.9857895585460921  0.0234561157515496 1.0000   
         C         C         1.0       0.997141284551708   0.9810879318876246  0.052759619161326654         1.0000   
         C         C         1.0       0.9943071320956977  0.9868030225070761  0.9912895612865609 1.0000   
         H         H         1.0       0.00902010107820539           0.9737781075561013 0.05114013686974017          1.0000   
         H         H         1.0       0.987021501075315   0.9726984941630306  0.06830460741082889          1.0000   
         H         H         1.0       0.9912548325728744  0.9758702488796922  0.962391829665493  1.0000   
         H         H         1.0       0.982801349582525   0.9945036805480486  0.9870868358469169 1.0000   
         C         C         1.0       0.07479105182135881           0.005028003228462419         0.42200440956860724          1.0000   
         C         C         1.0       0.07869763792406448           0.0036819449331846332        0.48601212787177434          1.0000   
         H         H         1.0       0.08336288378679013           0.9964649375240058 0.4020252619006844 1.0000   
         H         H         1.0       0.0626127965104899  0.9975606671033446  0.4203097054623943 1.0000   
         H         H         1.0       0.09223657033634147           0.00857760659217588          0.4887422036482154 1.0000   
         H         H         1.0       0.07845444250986544           0.9899319232115312 0.49244784615399056          1.0000   
         C         C         1.0       0.1090210386987491  0.11969456798121136           0.16861315914782715          1.0000   
         C         C         1.0       0.10751167987431343           0.10201203855828433          0.13689552164975113          1.0000   
         H         H         1.0       0.09590947845956355           0.12324197457478059          0.17692600398512667          1.0000   
         H         H         1.0       0.1131300804097275  0.12893737691487717           0.1372783833497219 1.0000   
         H         H         1.0       0.12044734567122561           0.09738049454336828          0.13023790774998478          1.0000   
         H         H         1.0       0.1033752119775746  0.1035948617711897  0.09410378225453697          1.0000   
         C         C         1.0       0.24555145291902625           0.23385230520265604          0.023786578961755067         1.0000   
         C         C         1.0       0.262905783035786   0.24211862808049478           0.009667782702754923         1.0000   
         H         H         1.0       0.2447518823061299  0.2212450882888708  0.004238778810311983         1.0000   
         H         H         1.0       0.23666029865608063           0.24138395087905937          0.0023342997309641067        1.0000   
         H         H         1.0       0.2657419403687366  0.2399571132680052  0.9641616875810003 1.0000   
         H         H         1.0       0.2718691638675374  0.23529136348227683           0.036502369820061276         1.0000   
         C         C         1.0       0.13831877732645342           0.13712794315473179          0.004734567978676996         1.0000   
         C         C         1.0       0.13515301922561246           0.11969830085878064          0.033207951970932736         1.0000   
         H         H         1.0       0.12858725558975717           0.13994919985627918          0.9707443398706869 1.0000   
         H         H         1.0       0.15088109116969528           0.13688037058749752          0.9870370249768797 1.0000   
         H         H         1.0       0.12097928400223527           0.12041410612554218          0.04558602732832928          1.0000   
         H         H         1.0       0.14066217886385146           0.11958622799242669          0.07594216235361939          1.0000   
         C         C         1.0       0.21442987749498554           0.13971389366000558          0.2846761315594564 1.0000   
         C         C         1.0       0.23001859822516965           0.12866237047143955          0.2721095475644886 1.0000   
         H         H         1.0       0.21151385775535178           0.13761859977173832          0.33091817246694766          1.0000   
         H         H         1.0       0.20220726290644458           0.13544806845748805          0.26562187257028463          1.0000   
         H         H         1.0       0.24107010965081915           0.13278122008843077          0.30284073778770526          1.0000   
         H         H         1.0       0.23408511197636714           0.13272004306398955          0.23123163800009802          1.0000   
         C         C         1.0       0.27329313454968596           0.23521837680651733          0.7877427294679679 1.0000   
         C         C         1.0       0.262190685918519   0.24367861328255497           0.8330506243125092 1.0000   
         H         H         1.0       0.2665217261622103  0.22598128393312988           0.7586724473567545 1.0000   
         H         H         1.0       0.28172605442846577           0.22571904895442416          0.8047583300880552 1.0000   
         H         H         1.0       0.264557291022202   0.25786422698174427           0.8376318755905777 1.0000   
         H         H         1.0       0.26804993028930085           0.23944063218195794          0.8750480790665983 1.0000   
         C         C         1.0       0.15287893292287003           0.17663297086299637          0.45647812664995097          1.0000   
         C         C         1.0       0.16552541746168234           0.16222597787701187          0.47830202647107123          1.0000   
         H         H         1.0       0.13854902081407702           0.17545352192963076          0.4632631914022336 1.0000   
         H         H         1.0       0.1548381850454514  0.17804073820863867           0.41048941011399265          1.0000   
         H         H         1.0       0.1785716153762629  0.16428894144727557           0.4664936873870779 1.0000   
         H         H         1.0       0.16490341249161186           0.1610251100023166 0.5257134172555019 1.0000   
         C         C         1.0       0.1628404339686812  0.16082994137611867           0.8054742436309696 1.0000   
         C         C         1.0       0.15430283290390254           0.1581128716135546 0.7451059065007241 1.0000   
         H         H         1.0       0.17334105749254525           0.15168439687021848          0.8064862546920673 1.0000   
         H         H         1.0       0.15396541147690748           0.15606248786776622          0.839512357758696  1.0000   
         H         H         1.0       0.16089531770226032           0.16318746315720695          0.7101659932634179 1.0000   
         H         H         1.0       0.1432247265540516  0.16667744393837622           0.7368535159818657 1.0000   
         C         C         1.0       0.14730230554327903           0.26776542485802196          0.9745243439423988 1.0000   
         C         C         1.0       0.14939733528705892           0.26367836866618516          0.03701592309580448          1.0000   
         H         H         1.0       0.13421856341234842           0.2652414658104715 0.9635707376120998 1.0000   
         H         H         1.0       0.149996297561932   0.2822602466162469  0.971479565552615  1.0000   
         H         H         1.0       0.1413967641309002  0.2734896613408184  0.05848532615471158          1.0000   
         H         H         1.0       0.16257032961615345           0.26534440733825343          0.04903155552112848          1.0000   
         C         C         1.0       0.23478887438039217           0.26417521095448554          0.4449164180766226 1.0000   
         C         C         1.0       0.2295060121227577  0.2669332331741201  0.3836422932563823 1.0000   
         H         H         1.0       0.244108025080759   0.2537021323311333  0.4449264527559058 1.0000   
         H         H         1.0       0.24161429273499935           0.2756237553444425 0.45945714496600737          1.0000   
         H         H         1.0       0.23936794477566914           0.2749535676110384 0.3597858703496529 1.0000   
         H         H         1.0       0.2185916200430478  0.27570903185508805           0.381835009708695  1.0000   
         C         C         1.0       0.07641038889866736           0.09911172543959079          0.9858698295424351 1.0000   
         C         C         1.0       0.07440954305494651           0.08318318911361877          0.025138283423221885         1.0000   
         H         H         1.0       0.06932920554386968           0.09685328742653909          0.9460022300966505 1.0000   
         H         H         1.0       0.09050431697881067           0.09997205911482232          0.9732783853641637 1.0000   
         H         H         1.0       0.06302185449717324           0.08578018419500322          0.0530462575186077 1.0000   
         H         H         1.0       0.08586161317954133           0.08421261603599461          0.05189577216143304          1.0000   
         C         C         1.0       0.9389399816226052  0.0914173101823541  0.12600148519528623          1.0000   
         C         C         1.0       0.9411156597313616  0.08063886006111365           0.17640756273762934          1.0000   
         H         H         1.0       0.9243801449948077  0.09374727146619533           0.12079074639909057          1.0000   
         H         H         1.0       0.9420354004971588  0.08349834617628127           0.08828332350658985          1.0000   
         H         H         1.0       0.9319199169669149  0.07044937928438055           0.17312203133097812          1.0000   
         H         H         1.0       0.9389038659676083  0.08779721785330752           0.21740502420031796          1.0000   
         C         C         1.0       0.08001999090149403           0.17221767339612876          0.3250596427293335 1.0000   
         C         C         1.0       0.08974215600498936           0.18903894215294298          0.32237465965114476          1.0000   
         H         H         1.0       0.07079593529411787           0.17377718612698745          0.3600216504401781 1.0000   
         H         H         1.0       0.08799524660802471           0.16203707875468779          0.3363887970493975 1.0000   
         H         H         1.0       0.09707751292392675           0.1904242395683264 0.3617166253555837 1.0000   
         H         H         1.0       0.08067487201495636           0.2003484932039944 0.32329812356591914          1.0000   
         C         C         1.0       0.08028436098184333           0.13565946592093578          0.45490383524241457          1.0000   
         C         C         1.0       0.06572417453398383           0.13199049156722756          0.4099501744923608 1.0000   
         H         H         1.0       0.09314040412030233           0.1353893769222063 0.43501721543685057          1.0000   
         H         H         1.0       0.07937917695258423           0.12499390730801486          0.48585203541139604          1.0000   
         H         H         1.0       0.06606900274713001           0.14290115266309497          0.380184833138275  1.0000   
         H         H         1.0       0.05288545244932985           0.133956118515743  0.4301369727438128 1.0000   
         C         C         1.0       0.05518072245648642           0.10857154918512624          0.6537888374606927 1.0000   
         C         C         1.0       0.0397633749888846  0.11462922809761608           0.6908548617177775 1.0000   
         H         H         1.0       0.06626889538873848           0.11099466416704461          0.6840292393079271 1.0000   
         H         H         1.0       0.05829019498933863           0.11671651562869052          0.6175279132804397 1.0000   
         H         H         1.0       0.02717141376366161           0.11097605077009942          0.6701831441521132 1.0000   
         H         H         1.0       0.0387227113219859  0.10739624176441431           0.7308822319692734 1.0000   
         C         C         1.0       0.07843138727577914           0.21854462614573464          0.9293075119001101 1.0000   
         C         C         1.0       0.07023551028209107           0.22020641180443087          0.9883475198419344 1.0000   
         H         H         1.0       0.08920027188628943           0.20971722266923315          0.9367449108600736 1.0000   
         H         H         1.0       0.08412019738975207           0.2301811515462939 0.9136081582950306 1.0000   
         H         H         1.0       0.05866236596115981           0.22751375442047886          0.9871995964312459 1.0000   
         H         H         1.0       0.07916017887854698           0.2280878486712822 0.013424709223998521         1.0000   
         C         C         1.0       0.9922343778328016  0.18288566455661912           0.35216972761181026          1.0000   
         C         C         1.0       0.011312772437155338          0.18616183649116055          0.3419331693786058 1.0000   
         H         H         1.0       0.9863491997565111  0.19450409597587123           0.36550532944737624          1.0000   
         H         H         1.0       0.9910646842348297  0.17426770820694365           0.3910346666229301 1.0000   
         H         H         1.0       0.012360825670079123          0.19509623494859313          0.30832369172096663          1.0000   
         H         H         1.0       0.017599510053834422          0.17558501268743545          0.32162905734736547          1.0000   
         C         C         1.0       0.11019165948637258           0.2752841422203838 0.4968118332632151 1.0000   
         C         C         1.0       0.09264138524091359           0.2712287518218897 0.5277306217843358 1.0000   
         H         H         1.0       0.11180704027022874           0.2886391958903485 0.4950859566783202 1.0000   
         H         H         1.0       0.10870212626843068           0.2724886822769589 0.45175751407382236          1.0000   
         H         H         1.0       0.08339509848428173           0.28013721577218387          0.5099616477493809 1.0000   
         H         H         1.0       0.09380083306415887           0.2740238392591452 0.5731868857785672 1.0000   
         C         C         1.0       0.5010605578692348  0.5525277143065782  0.7404770029944869 1.0000   
         C         C         1.0       0.48215428349408435           0.5556116241052753 0.7229487679427965 1.0000   
         H         H         1.0       0.5010770399348614  0.5426634709481492  0.7746248832155357 1.0000   
         H         H         1.0       0.507477445643848   0.5435499745496322  0.7073596035024855 1.0000   
         H         H         1.0       0.4794372419346798  0.5519316381451762  0.6779835633552614 1.0000   
         H         H         1.0       0.47901831705808473           0.5689452471784446 0.7226877963439532 1.0000   
         C         C         1.0       0.4860581486732597  0.5718746732998156  0.5568663630888587 1.0000   
         C         C         1.0       0.4957842584131092  0.5548072832811344  0.5569038575722206 1.0000   
         H         H         1.0       0.4829212610857889  0.5754556984661694  0.6021554048485483 1.0000   
         H         H         1.0       0.4732120901321596  0.5718214195222923  0.535046936424635  1.0000   
         H         H         1.0       0.5042168022146177  0.5529573754123434  0.5167779962975585 1.0000   
         H         H         1.0       0.5041744335243243  0.5542431417893255  0.5949302012087297 1.0000   
         C         C         1.0       0.6234432426196076  0.6251642616284637  0.6893886110301721 1.0000   
         C         C         1.0       0.6156113657902478  0.6116025915961785  0.726626961577959  1.0000   
         H         H         1.0       0.6373559411179949  0.6221543539056289  0.6855437000863023 1.0000   
         H         H         1.0       0.6225125175134034  0.6364936409406237  0.7157459082822746 1.0000   
         H         H         1.0       0.6239710173178067  0.607060688823817   0.7613104211433895 1.0000   
         H         H         1.0       0.6180227969904861  0.6002536739904053  0.7014231256932503 1.0000   
         C         C         1.0       0.49785600234054533           0.6086672704416187 0.22700271396838423          1.0000   
         C         C         1.0       0.5027303188430035  0.6205421039625345  0.17850459049780273          1.0000   
         H         H         1.0       0.5040163250131136  0.596232929253502   0.2231954881453875 1.0000   
         H         H         1.0       0.4839454527661703  0.6060374474574779  0.22516603878713287          1.0000   
         H         H         1.0       0.4919737482957266  0.6211166537845857  0.14616365183736932          1.0000   
         H         H         1.0       0.5041708515028231  0.6344041201805001  0.19131476036678843          1.0000   
         C         C         1.0       0.6236848190589924  0.5550146675493665  0.12147978678027482          1.0000   
         C         C         1.0       0.6067001413409056  0.5468857812420259  0.10529003271970971          1.0000   
         H         H         1.0       0.6337246139568362  0.5456867136209357  0.1221966610741205 1.0000   
         H         H         1.0       0.6225131070272889  0.5601096560152212  0.16507759196396177          1.0000   
         H         H         1.0       0.6037929191090706  0.5381479536280663  0.14035856074868525          1.0000   
         H         H         1.0       0.6095041966698824  0.5386015818539457  0.06845748397036955          1.0000   
         C         C         1.0       0.629936021930206   0.5414031850498381  0.6154495346799944 1.0000   
         C         C         1.0       0.6267495219959628  0.5538683513431871  0.6652650510858945 1.0000   
         H         H         1.0       0.6180722333962541  0.5357438014338696  0.6082974011527037 1.0000   
         H         H         1.0       0.6393754886409893  0.5313006387819232  0.624748523833241  1.0000   
         H         H         1.0       0.616889276737007   0.5629144856431483  0.6516126984425    1.0000   
         H         H         1.0       0.6197820536293853  0.5462374019102711  0.6993810261264812 1.0000   
         C         C         1.0       0.7368176404624864  0.5961123346179571  0.05160586323188499          1.0000   
         C         C         1.0       0.7429872001466215  0.5807373748382135  0.0877467838625501 1.0000   
         H         H         1.0       0.7455525777605947  0.5961430235770694  0.01613078080631314          1.0000   
         H         H         1.0       0.7403439166294192  0.6078169119869984  0.0746361745763553 1.0000   
         H         H         1.0       0.7405663464298653  0.5683784094814283  0.06480917033374634          1.0000   
         H         H         1.0       0.7567084174016108  0.5820857014639836  0.08877916794847085          1.0000   
         C         C         1.0       0.6101610897855294  0.593047538233779   0.24227650305081413          1.0000   
         C         C         1.0       0.5924880497270387  0.5943137108231287  0.2675923270283759 1.0000   
         H         H         1.0       0.6109179403489756  0.6057722220323084  0.2203134782013417 1.0000   
         H         H         1.0       0.6119596064751721  0.5841834607045376  0.20560325610928806          1.0000   
         H         H         1.0       0.5867167211964516  0.5826478683832103  0.2764076637352355 1.0000   
         H         H         1.0       0.5844124824344505  0.5993011276335665  0.23355345852326784          1.0000   
         C         C         1.0       0.46123196499942953           0.7731344295844496 0.7482110009864072 1.0000   
         C         C         1.0       0.44602458318776994           0.7630618754455624 0.7282227006598271 1.0000   
         H         H         1.0       0.4588907304899245  0.7780351084931857  0.7914665531673282 1.0000   
         H         H         1.0       0.46319220719856957           0.7832892480027382 0.7161658441211645 1.0000   
         H         H         1.0       0.4429329277544571  0.7530703928408587  0.754241283278818  1.0000   
         H         H         1.0       0.44774326633759065           0.7573970160599508 0.6875768682985346 1.0000   
         C         C         1.0       0.6163775726653724  0.7226993135401856  0.42360219114967856          1.0000   
         C         C         1.0       0.6273949661925416  0.7070965609572645  0.4383751660429581 1.0000   
         H         H         1.0       0.625108196080028   0.732101906063109   0.40589864225007644          1.0000   
         H         H         1.0       0.6074910130078013  0.719429151069908   0.3903048473639307 1.0000   
         H         H         1.0       0.6339680982121277  0.7089745215042595  0.480169322419164  1.0000   
         H         H         1.0       0.6372025893131108  0.7059103936010841  0.40553163055072616          1.0000   
         C         C         1.0       0.4910115615735861  0.6532798677403674  0.7059908372771694 1.0000   
         C         C         1.0       0.4814987799156925  0.6683555244277467  0.7302242995259951 1.0000   
         H         H         1.0       0.49503272980147034           0.658006917142628  0.6634702178295739 1.0000   
         H         H         1.0       0.48135081020447584           0.6427677723404437 0.701066886245695  1.0000   
         H         H         1.0       0.4761470097464846  0.6653680264828771  0.7732966036973293 1.0000   
         H         H         1.0       0.4699832023769703  0.6699349571547014  0.7017915656522704 1.0000   
         C         C         1.0       0.4816625121902138  0.7516473409615735  0.2910503641207777 1.0000   
         C         C         1.0       0.471032176948451   0.746105518734121   0.3432217649462801 1.0000   
         H         H         1.0       0.4767434786317383  0.7631614019310338  0.27491386421104425          1.0000   
         H         H         1.0       0.4779624851588754  0.7435906466683013  0.25326187475649214          1.0000   
         H         H         1.0       0.4769529789612149  0.749431374020372   0.38476993029487416          1.0000   
         H         H         1.0       0.46925329616867906           0.7323789318693447 0.35037218804874337          1.0000   
         C         C         1.0       0.6212107287743674  0.6483246540893296  0.2060540549076829 1.0000   
         C         C         1.0       0.6245806914112744  0.6398260773337682  0.14773786943372672          1.0000   
         H         H         1.0       0.6310558398899108  0.644910667905885   0.23455103440767727          1.0000   
         H         H         1.0       0.6102528048694136  0.641875605115632   0.22157702252569425          1.0000   
         H         H         1.0       0.6337317235783866  0.6482293405265613  0.12452100064800699          1.0000   
         H         H         1.0       0.6304097099189291  0.6287000022635428  0.16443786680610292          1.0000   
         C         C         1.0       0.5110723523602746  0.7022839659384359  0.5219567447418527 1.0000   
         C         C         1.0       0.5292267390145972  0.7115257359800778  0.5301316741396627 1.0000   
         H         H         1.0       0.5031145615900321  0.7043720747372221  0.5624607664497467 1.0000   
         H         H         1.0       0.5029865141934116  0.7092094884842147  0.49187533979927744          1.0000   
         H         H         1.0       0.5392186913566189  0.7034177367693006  0.5487803142376063 1.0000   
         H         H         1.0       0.5271592269457099  0.7201084252293711  0.5660702533910246 1.0000   
         C         C         1.0       0.5763827067825208  0.7302195366393436  0.9188631031292875 1.0000   
         C         C         1.0       0.5842925740066721  0.7140458264562679  0.9412939908344483 1.0000   
         H         H         1.0       0.5728824901201615  0.7383143965641294  0.9577713771170125 1.0000   
         H         H         1.0       0.5869464298868899  0.737274569461849   0.8981974349223906 1.0000   
         H         H         1.0       0.5939117219140545  0.7098832553830264  0.910072949333789  1.0000   
         H         H         1.0       0.5759649606447168  0.7032560370692953  0.9396171897586765 1.0000   
         C         C         1.0       0.5880166969509197  0.8126484322275831  0.42588310575657334          1.0000   
         C         C         1.0       0.5752989538144759  0.8160770097501325  0.47676170323602257          1.0000   
         H         H         1.0       0.6003904004402927  0.8113483996489599  0.44582670903008653          1.0000   
         H         H         1.0       0.588072517159323   0.8237108850564988  0.4026201114875702 1.0000   
         H         H         1.0       0.56211127966334    0.8183171553916486  0.45782219414538466          1.0000   
         H         H         1.0       0.577637482963852   0.827594849956884   0.49712086113433596          1.0000   
         C         C         1.0       0.664120228411494   0.6518677489767051  0.5427375692400827 1.0000   
         C         C         1.0       0.6756853094517954  0.6363300328011132  0.5575528530752009 1.0000   
         H         H         1.0       0.6510503475818873  0.6470884019663522  0.5495906307342058 1.0000   
         H         H         1.0       0.6638629082747279  0.6518533754759928  0.49529211197167045          1.0000   
         H         H         1.0       0.6761282806735714  0.6343812128160682  0.6053283963058178 1.0000   
         H         H         1.0       0.6889637960972728  0.639241882771329   0.5543183032427326 1.0000   
         C         C         1.0       0.7374951906747591  0.6453177740995629  0.6580968269381042 1.0000   
         C         C         1.0       0.7183685188529175  0.6422278244932754  0.6547257251354557 1.0000   
         H         H         1.0       0.74451246349314    0.6389938042029433  0.6213912031072926 1.0000   
         H         H         1.0       0.7436713812032247  0.6390921706750424  0.6934215607687225 1.0000   
         H         H         1.0       0.7133208345438721  0.6440330786781723  0.6108650183662825 1.0000   
         H         H         1.0       0.712163949612482   0.6514514405141195  0.6833345584900178 1.0000   
         C         C         1.0       0.640424496520613   0.7517042862748098  0.8128139257135285 1.0000   
         C         C         1.0       0.6218924159156252  0.7496172966811224  0.8293312085238576 1.0000   
         H         H         1.0       0.6433292208907766  0.7651646895039872  0.8092744076696466 1.0000   
         H         H         1.0       0.6489257851445585  0.7476392819840013  0.8502127352530205 1.0000   
         H         H         1.0       0.6182713423163657  0.7580870446905209  0.8661189357966314 1.0000   
         H         H         1.0       0.6199983073238086  0.7360795538967623  0.8450809463011149 1.0000   
         C         C         1.0       0.6384697730472645  0.6720359021697587  0.030400391280103634         1.0000   
         C         C         1.0       0.6488100492397617  0.6868661779886474  0.005081032139962139         1.0000   
         H         H         1.0       0.6241081207347796  0.6741731446219994  0.02139238227312568          1.0000   
         H         H         1.0       0.637963554857147   0.6731507526022033  0.07694439369916185          1.0000   
         H         H         1.0       0.6501919793994542  0.6852661968780281  0.9579674152845623 1.0000   
         H         H         1.0       0.6404402268979392  0.6985756741572762  0.005451134612823649         1.0000   
         C         C         1.0       0.71830230476017    0.633855828409675   0.479955315900194  1.0000   
         C         C         1.0       0.732556902526282   0.6470290277422462  0.4803900148313109 1.0000   
         H         H         1.0       0.7148534865334706  0.6281306516396566  0.5230038579223433 1.0000   
         H         H         1.0       0.7070035947497579  0.6408486188390126  0.46689022674932484          1.0000   
         H         H         1.0       0.7458589958191062  0.6426679498639664  0.4794181043053753 1.0000   
         H         H         1.0       0.7310481786180979  0.6530927905199292  0.524375019984341  1.0000   
         C         C         1.0       0.7703493430257017  0.7226195400759883  0.9591624402129438 1.0000   
         C         C         1.0       0.7736521524260002  0.7361408789091828  0.9139296538799205 1.0000   
         H         H         1.0       0.7801854693048736  0.7231046556607353  0.9932439807433334 1.0000   
         H         H         1.0       0.7713508343795111  0.7097795045258447  0.9384684396310714 1.0000   
         H         H         1.0       0.7706473039933645  0.7494993331866039  0.9242948972996174 1.0000   
         H         H         1.0       0.7872898071204975  0.7370622958356167  0.9049703890892328 1.0000   
         C         C         1.0       0.6693097102614426  0.7588018916614037  0.4058825422933179 1.0000   
         C         C         1.0       0.6869532303754509  0.7606184429298398  0.3759536815662209 1.0000   
         H         H         1.0       0.6614159306780579  0.7521367893662663  0.37622883892706754          1.0000   
         H         H         1.0       0.6632963984416063  0.77146838687884    0.4090939375050636 1.0000   
         H         H         1.0       0.6939124145288532  0.772116526315572   0.3863498449161572 1.0000   
         H         H         1.0       0.6837153697523606  0.7652564634976314  0.33410434311332515          1.0000   
         C         C         1.0       0.669079522119119   0.7789890761402556  0.16527722017062765          1.0000   
         C         C         1.0       0.6546202374173844  0.7768316466258822  0.21080102603043865          1.0000   
         H         H         1.0       0.6775628760836083  0.7892640463687918  0.17631442583486734          1.0000   
         H         H         1.0       0.6619517227362403  0.7835401296086075  0.12690827068322816          1.0000   
         H         H         1.0       0.6484552343223247  0.7891867101488949  0.21298409723049475          1.0000   
         H         H         1.0       0.659341299419868   0.7739863796265217  0.2547147027900941 1.0000   
         C         C         1.0       0.27161993813768665           0.5725775548487337 0.9145404246697206 1.0000   
         C         C         1.0       0.2703670914644985  0.5585571186207914  0.8703363910073058 1.0000   
         H         H         1.0       0.26790680035477454           0.5845578166586963 0.8940352304875296 1.0000   
         H         H         1.0       0.2845898629471907  0.5745695559262618  0.9254910335413056 1.0000   
         H         H         1.0       0.27578986874234185           0.5628350018870041 0.8307613851647783 1.0000   
         H         H         1.0       0.25640533341368776           0.5584403682539467 0.8585670247226397 1.0000   
         C         C         1.0       0.26311771551205004           0.561939840864754  0.7135957500102754 1.0000   
         C         C         1.0       0.2482213963039363  0.5717752922617002  0.6858143360426309 1.0000   
         H         H         1.0       0.2567719757896609  0.5530586665187527  0.7442806067648468 1.0000   
         H         H         1.0       0.27086705760074714           0.572322496233397  0.7373819000244682 1.0000   
         H         H         1.0       0.25351560859204103           0.5780231537113645 0.6451098090117858 1.0000   
         H         H         1.0       0.24554917060242268           0.5824852470866563 0.716695333872318  1.0000   
         C         C         1.0       0.13967918385607112           0.514951124679821  0.8174935848121998 1.0000   
         C         C         1.0       0.15021750809934833           0.5103031782759591 0.8712783216071637 1.0000   
         H         H         1.0       0.12908713735736804           0.5226078927617972 0.8295012688576743 1.0000   
         H         H         1.0       0.13429082464718942           0.5035945155420294 0.7992480586148076 1.0000   
         H         H         1.0       0.16202855766910704           0.5038058485911853 0.8590332867288859 1.0000   
         H         H         1.0       0.14360729900016822           0.5004385939819206 0.8919731570067683 1.0000   
         C         C         1.0       0.2401922184016021  0.5002448067288255  0.24065630039439434          1.0000   
         C         C         1.0       0.2406245270005999  0.4992695794583858  0.30534775270585596          1.0000   
         H         H         1.0       0.22927164617495524           0.4932731759588474 0.2244975861218906 1.0000   
         H         H         1.0       0.252339065801019   0.49309298803591073           0.22575236196043796          1.0000   
         H         H         1.0       0.25039082942178675           0.5069380419554271 0.32169946426050317          1.0000   
         H         H         1.0       0.24721833593689435           0.4882828274287799 0.32316422808377393          1.0000   
         C         C         1.0       0.10687943894304489           0.5273520229102893 0.2653434121224538 1.0000   
         C         C         1.0       0.12413039640269125           0.5370011074577857 0.2682024082142638 1.0000   
         H         H         1.0       0.1004440921177061  0.5287967878407936  0.3065738337855679 1.0000   
         H         H         1.0       0.10944594738216766           0.5136965736889462 0.2660412721039793 1.0000   
         H         H         1.0       0.13342898435864853           0.5275361721894067 0.2860695855355013 1.0000   
         H         H         1.0       0.12431649936537209           0.5472774482382018 0.30219221788434103          1.0000   
         C         C         1.0       0.0931645835247179  0.5332638101696462  0.7951941681026145 1.0000   
         C         C         1.0       0.0943043936137431  0.5482929190786563  0.8379791605289835 1.0000   
         H         H         1.0       0.10149347445020163           0.5361919801943547 0.7582480337683303 1.0000   
         H         H         1.0       0.09867939965207273           0.5216312154649856 0.8104823094489154 1.0000   
         H         H         1.0       0.08713709233170208           0.5599110566002489 0.8198854461623437 1.0000   
         H         H         1.0       0.10707027821125292           0.5527288603180982 0.8371245353441795 1.0000   
         C         C         1.0       0.9868369699269376  0.48050657284294246           0.33956296394808294          1.0000   
         C         C         1.0       0.9913477873790837  0.47566558974404355           0.2774947543018941 1.0000   
         H         H         1.0       0.975056125940723   0.48788194534928336           0.3431769703592553 1.0000   
         H         H         1.0       0.9822189913072147  0.4680703639225741  0.3535826358563263 1.0000   
         H         H         1.0       0.9815141629220759  0.466187634488807   0.26618723892326024          1.0000   
         H         H         1.0       0.004075633455347338          0.4690655855299516 0.2749309733573001 1.0000   
         C         C         1.0       0.10706050104348046           0.4654361646329487 0.41733842009352395          1.0000   
         C         C         1.0       0.12074657265635619           0.46891484424704566          0.3731916983347051 1.0000   
         H         H         1.0       0.11286475116603213           0.46356832078641125          0.4598998567682542 1.0000   
         H         H         1.0       0.10072662753521078           0.4531902026310409 0.41068076017240923          1.0000   
         H         H         1.0       0.11578559415411138           0.471434606168026  0.32912785288785534          1.0000   
         H         H         1.0       0.1257600866161585  0.45584328471914276           0.36805473092303903          1.0000   
         C         C         1.0       0.19519610979618476           0.7396757222260598 0.5134594584581056 1.0000   
         C         C         1.0       0.2138125039938453  0.7349475643241057  0.5263979982851694 1.0000   
         H         H         1.0       0.19289550097796826           0.7359103822358817 0.46906409375100555          1.0000   
         H         H         1.0       0.1912764756035839  0.7533261660374342  0.5220155782945245 1.0000   
         H         H         1.0       0.21375791085434911           0.7212175587792936 0.5344965427383123 1.0000   
         H         H         1.0       0.22149357508890788           0.7369453221191906 0.48967422816557554          1.0000   
         C         C         1.0       0.13456654940626323           0.6242220672717408 0.9613563179171638 1.0000   
         C         C         1.0       0.14450114977952364           0.6388713453004585 0.9909959643533067 1.0000   
         H         H         1.0       0.13703084648163874           0.6252836788283735 0.9160578071673335 1.0000   
         H         H         1.0       0.12107444982079864           0.6247517000707355 0.9674072503937319 1.0000   
         H         H         1.0       0.15865981688707537           0.6379411405043487 0.9894009299787114 1.0000   
         H         H         1.0       0.14015422147669765           0.6397327176357568 0.03655669575544085          1.0000   
         C         C         1.0       0.18195249805526859           0.6314774094736361 0.578380238122328  1.0000   
         C         C         1.0       0.16708564389439565           0.6189315203917455 0.5839657748287256 1.0000   
         H         H         1.0       0.188778502928132   0.6286245716612214  0.5395760636107544 1.0000   
         H         H         1.0       0.1903885760360728  0.6275587770917996  0.6116127259673174 1.0000   
         H         H         1.0       0.15984002092415797           0.6203850547772961 0.5415657976360422 1.0000   
         H         H         1.0       0.15768426727089244           0.6231465322774379 0.6174099606145678 1.0000   
         C         C         1.0       0.21165918999437042           0.7624293814756242 0.35378573404514113          1.0000   
         C         C         1.0       0.21328667181961997           0.7784516278575037 0.31934609146523646          1.0000   
         H         H         1.0       0.22422122529117716           0.7623861892725373 0.379637719161728  1.0000   
         H         H         1.0       0.2024613016398997  0.7636158870623274  0.3881390989610521 1.0000   
         H         H         1.0       0.20669574062779247           0.788503168537309  0.3412252315541882 1.0000   
         H         H         1.0       0.2060860027677017  0.7776623947873186  0.27987566219432203          1.0000   
         C         C         1.0       0.1716951219647347  0.5824404453977953  0.29176146385608553          1.0000   
         C         C         1.0       0.15399843035239413           0.5905040928746386 0.3030614777924638 1.0000   
         H         H         1.0       0.18180966502060872           0.5898700675825946 0.3064669863752173 1.0000   
         H         H         1.0       0.17464625971737963           0.5798857164976311 0.2444311205672798 1.0000   
         H         H         1.0       0.15083995673619083           0.5895005456054997 0.3492410200743873 1.0000   
         H         H         1.0       0.14423246205064036           0.5828028334274584 0.2843616088943183 1.0000   
         C         C         1.0       0.2416674675563903  0.6399569925344616  0.25495845686169355          1.0000   
         C         C         1.0       0.2517702403752698  0.6308423755501541  0.20709305423066104          1.0000   
         H         H         1.0       0.2509392477269505  0.6418639315027672  0.2898924384097472 1.0000   
         H         H         1.0       0.2322591355816804  0.6311158028869104  0.2739821643667633 1.0000   
         H         H         1.0       0.2640770183798511  0.6298461432646278  0.228591533083409  1.0000   
         H         H         1.0       0.2540731837788271  0.6381913075210472  0.1673939054940809 1.0000   
         C         C         1.0       0.18038097776859105           0.7446078558880848 0.9812588646272259 1.0000   
         C         C         1.0       0.19704118247327396           0.7361716941909351 0.002431981617450951         1.0000   
         H         H         1.0       0.18340238930921465           0.7541798732473156 0.9486292291015144 1.0000   
         H         H         1.0       0.17399323542608378           0.7518724315224291 0.015305630181239094         1.0000   
         H         H         1.0       0.2076452662884896  0.7453844620226967  0.005680856799181511         1.0000   
         H         H         1.0       0.2012985686435546  0.7288207815968804  0.9656332538646863 1.0000   
         C         C         1.0       0.08578208789863306           0.6876325062815961 0.4273115525983    1.0000   
         C         C         1.0       0.08285980928346759           0.6837214648096901 0.4897589031957796 1.0000   
         H         H         1.0       0.0873299890872965  0.7014393279409742  0.42495990718398136          1.0000   
         H         H         1.0       0.07459572779323342           0.6847109826257788 0.4024300271128917 1.0000   
         H         H         1.0       0.07877145327408042           0.6707026653540098 0.49606843690391483          1.0000   
         H         H         1.0       0.07213200813238196           0.6910463562593463 0.5047826165471395 1.0000   
         C         C         1.0       0.03972932121116601           0.624276310680273  0.0650893179673806 1.0000   
         C         C         1.0       0.05879811599676765           0.6246046174945615 0.04995786217077014          1.0000   
         H         H         1.0       0.03826730190148275           0.6221262287726571 0.10937503177534946          1.0000   
         H         H         1.0       0.032852843160612544          0.6129692236163086 0.05023742631936012          1.0000   
         H         H         1.0       0.060560472244046704          0.631803450160184  0.01112428399493881          1.0000   
         H         H         1.0       0.06618329870098738           0.6318885872444294 0.08148656406095922          1.0000   
         C         C         1.0       0.9860216119031546  0.5826658752822484  0.6781833371098586 1.0000   
         C         C         1.0       0.9771505019387998  0.5698766198074069  0.7143071039576055 1.0000   
         H         H         1.0       0.9830113225018997  0.5795581489802524  0.6318114148238257 1.0000   
         H         H         1.0       9.037360489383417e-05         0.5800711100021106 0.6807123248843568 1.0000   
         H         H         1.0       0.9773611963417131  0.5752613356884293  0.7578828262558609 1.0000   
         H         H         1.0       0.9640942891633014  0.5679195675397204  0.704541921931533  1.0000   
         C         C         1.0       0.05399430179423903           0.7237631188398674 0.961097944165907  1.0000   
         C         C         1.0       0.06168406901283108           0.730422330032496  0.9086993993635475 1.0000   
         H         H         1.0       0.05088606722266542           0.7353255927905361 0.986526115433031  1.0000   
         H         H         1.0       0.06434927847644656           0.7178368744470425 0.9880119047799015 1.0000   
         H         H         1.0       0.06443526854583737           0.7441808140512617 0.913087546014129  1.0000   
         H         H         1.0       0.05231924953461742           0.7317401391263656 0.8738486800742521 1.0000   
         C         C         1.0       0.06697241736433934           0.5830328799048294 0.28797730300688507          1.0000   
         C         C         1.0       0.057066594893444345          0.5763000866262021 0.3404406642312236 1.0000   
         H         H         1.0       0.0806707695719604  0.5835736393905981  0.29798998305064617          1.0000   
         H         H         1.0       0.06668034387494237           0.5762430854375692 0.24803534665629137          1.0000   
         H         H         1.0       0.04406581493426298           0.5803252902260541 0.3343509687152151 1.0000   
         H         H         1.0       0.0613769741909187  0.5839813600923569  0.3756587552914205 1.0000   
         C         C         1.0       0.9474865164618307  0.5900043691777372  0.2934004887328148 1.0000   
         C         C         1.0       0.9615478814625472  0.5778235870731616  0.3085071332165161 1.0000   
         H         H         1.0       0.9360010227792965  0.5885478406191976  0.3213979120055405 1.0000   
         H         H         1.0       0.9423830965616098  0.5864595874317817  0.2503424646026901 1.0000   
         H         H         1.0       0.9562050952930757  0.5664059228362913  0.33251413627117277          1.0000   
         H         H         1.0       0.9688641723721229  0.582578040491516   0.3447915828478749 1.0000   
         C         C         1.0       0.9337584781761392  0.7056127681855626  0.12679299563871216          1.0000   
         C         C         1.0       0.9311464444521308  0.695994425514394   0.07186152742717011          1.0000   
         H         H         1.0       0.9213490693272128  0.7105969099609211  0.13775496810772903          1.0000   
         H         H         1.0       0.9409544724240936  0.7177727693811071  0.12163166319651952          1.0000   
         H         H         1.0       0.9226165047128926  0.6854900842050019  0.08096766685385104          1.0000   
         H         H         1.0       0.9243855041142963  0.7038128405014722  0.04148856656105493          1.0000   
         C         C         1.0       0.02581207537948016           0.6761772664091019 0.5237155969897475 1.0000   
         C         C         1.0       0.00604350999228509           0.6777400073188894 0.5288854661263267 1.0000   
         H         H         1.0       0.028719598045449324          0.666750428544236  0.5552303888091579 1.0000   
         H         H         1.0       0.03231621072810986           0.6876403675960266 0.5387938194694247 1.0000   
         H         H         1.0       0.004219345057218993          0.6911059100370853 0.5222157217413396 1.0000   
         H         H         1.0       3.425143902258121e-05         0.6709706932592666 0.49267514152834546          1.0000   
         C         C         1.0       0.0741719076465519  0.6866677153959877  0.09981802517857216          1.0000   
         C         C         1.0       0.08891443044786218           0.6747513816234396 0.08206472995408953          1.0000   
         H         H         1.0       0.06637398383295157           0.6894401803934402 0.06085147778070854          1.0000   
         H         H         1.0       0.07947776819954733           0.6987587355682632 0.11228642663088802          1.0000   
         H         H         1.0       0.09543885544804631           0.6810003404770627 0.043317996568904345         1.0000   
         H         H         1.0       0.08525139180415464           0.6618440285896383 0.0659884899534835 1.0000   
         C         C         1.0       0.8160900421231053  0.7607747926685565  0.5863063090475642 1.0000   
         C         C         1.0       0.7991404386339233  0.7583714352918497  0.5545378057557894 1.0000   
         H         H         1.0       0.8264335051902786  0.7632770494930272  0.5538299944705175 1.0000   
         H         H         1.0       0.8202036713929354  0.7485942639018796  0.6060454595478582 1.0000   
         H         H         1.0       0.7937870058907516  0.7713378113368841  0.5469509899430299 1.0000   
         H         H         1.0       0.8025560538194734  0.7541354754054745  0.5134695836451154 1.0000   
         C         C         1.0       0.8181515549348743  0.699221168220163   0.40945185924325256          1.0000   
         C         C         1.0       0.8009969296986515  0.6951066789227434  0.43630223402159285          1.0000   
         H         H         1.0       0.8197469338876349  0.6914148839540278  0.37235777109743323          1.0000   
         H         H         1.0       0.8286521492730178  0.6968899703556225  0.4374567566703774 1.0000   
         H         H         1.0       0.8009590883679241  0.7001664379826776  0.47964680140319965          1.0000   
         H         H         1.0       0.800898826184928   0.681629567901475   0.445454867166248  1.0000   
         C         C         1.0       0.7743217929041111  0.8542792850163009  0.619170640667424  1.0000   
         C         C         1.0       0.7851318680638153  0.8627727509570027  0.6687720043096387 1.0000   
         H         H         1.0       0.7653623386867067  0.8643080494604358  0.6041316638378869 1.0000   
         H         H         1.0       0.7649380091219932  0.8456120929243875  0.6360743202084339 1.0000   
         H         H         1.0       0.776053019712572   0.8699034137185419  0.6948927107215465 1.0000   
         H         H         1.0       0.7931644110983173  0.8729994028969673  0.6515618260739187 1.0000   
         C         C         1.0       0.770704423133502   0.7532536236181637  0.16768730656835773          1.0000   
         C         C         1.0       0.7639975775163659  0.7668977784097205  0.12447722656471956          1.0000   
         H         H         1.0       0.7754823501441769  0.742072531067055   0.14339981583727668          1.0000   
         H         H         1.0       0.7601392741519782  0.7468745791465357  0.18994017424975382          1.0000   
         H         H         1.0       0.7594482923138177  0.7778005832312221  0.14825732131075714          1.0000   
         H         H         1.0       0.7531666137818797  0.7624726981700152  0.09861145306567988          1.0000   
         C         C         1.0       0.7692515991980642  0.014998664403619744         0.7378269527240329 1.0000   
         C         C         1.0       0.7498314410080906  0.021765541563581126         0.7357925958006538 1.0000   
         H         H         1.0       0.7761875916484668  0.02208898216698385           0.7727726135006986 1.0000   
         H         H         1.0       0.7764566611425398  0.019924367133000498         0.7020657813069215 1.0000   
         H         H         1.0       0.7440367127905423  0.020608201097195744         0.6959324130564144 1.0000   
         H         H         1.0       0.7487867471024596  0.03532535859886021           0.7454344671400148 1.0000   
         C         C         1.0       0.8190446678886186  0.8667140819423388  0.049861921038041546         1.0000   
         C         C         1.0       0.83398027330049    0.8610734237572963  0.08635448455246908          1.0000   
         H         H         1.0       0.8071310808200772  0.8622428552289911  0.0713641194988055 1.0000   
         H         H         1.0       0.8187279693761289  0.8613529768470986  0.00633419372247368          1.0000   
         H         H         1.0       0.8457344550729543  0.869256703698215   0.07848183851035162          1.0000   
         H         H         1.0       0.8298256505230978  0.863011332043997   0.13024788292787104          1.0000   
         C         C         1.0       0.7662017480928162  0.05584671575796252           0.3420204368608161 1.0000   
         C         C         1.0       0.7806591867478256  0.05281865490713322           0.38659458610007436          1.0000   
         H         H         1.0       0.7618286822212686  0.06917109725202697           0.3422075455496924 1.0000   
         H         H         1.0       0.7704450327083997  0.0533104202672825  0.29871194491691166          1.0000   
         H         H         1.0       0.7765585529614787  0.05631156758878331           0.4288356209649965 1.0000   
         H         H         1.0       0.7910762367274591  0.06214610169216561           0.37502624659401457          1.0000   
         C         C         1.0       0.7198924881940589  0.908018672729563   0.6058044397438479 1.0000   
         C         C         1.0       0.7263481151452605  0.900222747862168   0.6591429828752994 1.0000   
         H         H         1.0       0.7072944013696771  0.9018162393880513  0.5929269282918852 1.0000   
         H         H         1.0       0.7138125236864629  0.9208250428302315  0.620437030004887  1.0000   
         H         H         1.0       0.7292776198790374  0.8871155706845039  0.6553919981084483 1.0000   
         H         H         1.0       0.7161348988899082  0.8983078700052733  0.6906642885757083 1.0000   
         C         C         1.0       0.7641388690780937  0.9968612735494943  0.12481328322775213          1.0000   
         C         C         1.0       0.7562789363178738  0.9801496122874971  0.10699774608976106          1.0000   
         H         H         1.0       0.7539998882586371  0.0066945806316422996        0.1299064719485988 1.0000   
         H         H         1.0       0.7725084508596397  0.0007337722898976828        0.08973400411179779          1.0000   
         H         H         1.0       0.7505352527789332  0.9742128490163781  0.1414259006909694 1.0000   
         H         H         1.0       0.7441687725777397  0.9838538684820687  0.08138210264254764          1.0000   
         C         C         1.0       0.8003140883006444  0.8725393078481425  0.26790378091107164          1.0000   
         C         C         1.0       0.8196125842164804  0.8733039224457365  0.26554840069653357          1.0000   
         H         H         1.0       0.7953936749500184  0.858889891363362   0.27458327812805233          1.0000   
         H         H         1.0       0.7950130193119159  0.876206869102864   0.22646557428325237          1.0000   
         H         H         1.0       0.82481800749234    0.8861496886867447  0.2631778919303641 1.0000   
         H         H         1.0       0.8245362128315487  0.8675793854540399  0.22561772153984708          1.0000   
         C         C         1.0       0.9118049373991468  0.6823015297707995  0.8805749921893367 1.0000   
         C         C         1.0       0.9068412776779773  0.6793189757360663  0.8191059355091133 1.0000   
         H         H         1.0       0.9186332319015682  0.6719953081738469  0.8999287644537709 1.0000   
         H         H         1.0       0.899104881190726   0.6839445949279949  0.9030556760652028 1.0000   
         H         H         1.0       0.9034683422824722  0.6909678492339892  0.7981735644182436 1.0000   
         H         H         1.0       0.8953811395285295  0.6715777567948801  0.8133415566422404 1.0000   
         C         C         1.0       0.8941744411438023  0.8101781199365197  0.5841507115008632 1.0000   
         C         C         1.0       0.8916529125081596  0.8293367086934218  0.5853521579766099 1.0000   
         H         H         1.0       0.8837968653652152  0.8032790394768067  0.6036262060593894 1.0000   
         H         H         1.0       0.8953314035864381  0.8050844868234225  0.5401860952305343 1.0000   
         H         H         1.0       0.9034355956270694  0.8347218858587107  0.5671001959726012 1.0000   
         H         H         1.0       0.8922090845205684  0.8332012071576842  0.6297049375894155 1.0000   
         C         C         1.0       0.9028567988798859  0.8074260010303786  0.8815121413534908 1.0000   
         C         C         1.0       0.8998328540330202  0.8164871991948297  0.8251742530149139 1.0000   
         H         H         1.0       0.8905174312355972  0.8032626750635025  0.8992659844319949 1.0000   
         H         H         1.0       0.909651549731579   0.8169844603936607  0.91121606296      1.0000   
         H         H         1.0       0.9053240893686147  0.8295917695484443  0.8255990483963157 1.0000   
         H         H         1.0       0.9075844662933076  0.809712193626923   0.7918757072036161 1.0000   
         C         C         1.0       0.9412022962004295  0.7153479896222894  0.5164142521528013 1.0000   
         C         C         1.0       0.9547679885464989  0.7019328255412792  0.5131178154672059 1.0000   
         H         H         1.0       0.940264988255715   0.7180190184986464  0.5634510295062579 1.0000   
         H         H         1.0       0.9283331496287988  0.7102995343605224  0.5061741432529016 1.0000   
         H         H         1.0       0.9521500773406959  0.6926742258548788  0.5486489495330803 1.0000   
         H         H         1.0       0.9668496033471763  0.7087000402227365  0.5222300441644794 1.0000   
         C         C         1.0       0.004449686935189989          0.7521603941803101 0.03048664048364169          1.0000   
         C         C         1.0       0.00432616278177167           0.7465638890262056 0.09451373860066337          1.0000   
         H         H         1.0       0.007216113227761722          0.765413898958491  0.01992490327003993          1.0000   
         H         H         1.0       0.015417960356995053          0.7453923150703902 0.013761108029143099         1.0000   
         H         H         1.0       0.01714915417721774           0.7475850292367358 0.11141405293106699          1.0000   
         H         H         1.0       0.0010231386416339472         0.7326903620066667 0.09444777313872255          1.0000   
         C         C         1.0       0.013360601383110682          0.7953454183390476 0.4869091633309727 1.0000   
         C         C         1.0       0.015416543978958863          0.7802828720909067 0.5287520048682077 1.0000   
         H         H         1.0       0.024571594763387328          0.792907356957996  0.45893979222752895          1.0000   
         H         H         1.0       0.016240382098841488          0.8075279249463292 0.5099964313701149 1.0000   
         H         H         1.0       0.02846032751773775           0.7797614818036491 0.5453868741792102 1.0000   
         H         H         1.0       0.013550001476402507          0.7673850641904766 0.5108312747101927 1.0000   
         C         C         1.0       0.8860122844319674  0.733874675721548   0.06274034863073963          1.0000   
         C         C         1.0       0.867455721536939   0.7357866517230377  0.07744181519755355          1.0000   
         H         H         1.0       0.8874014934322231  0.7312253741549288  0.015874159577588864         1.0000   
         H         H         1.0       0.89145922119595    0.7227453960040817  0.07973350733984441          1.0000   
         H         H         1.0       0.8657563047024943  0.7331302656646724  0.12259703294143312          1.0000   
         H         H         1.0       0.8596721571675721  0.7254286502672722  0.056198973904155514         1.0000   
         C         C         1.0       0.8871827193744405  0.8196796396222533  0.33116785245522645          1.0000   
         C         C         1.0       0.8849866988918317  0.8077795132452755  0.2778339851083274 1.0000   
         H         H         1.0       0.8741745671707537  0.8206289072989228  0.352747713285739  1.0000   
         H         H         1.0       0.8917365267287954  0.8316309065641468  0.31705215625951605          1.0000   
         H         H         1.0       0.895561086093902   0.7993557191077685  0.2749350616346438 1.0000   
         H         H         1.0       0.8843895175365525  0.8147551706251993  0.23794329966258873          1.0000   
         C         C         1.0       0.9672682308839312  0.005772839935512808         0.5802504546960547 1.0000   
         C         C         1.0       0.9713442940251751  0.012427944361943721         0.6421930577213799 1.0000   
         H         H         1.0       0.9793611706228397  0.9992702570238711  0.564909186395343  1.0000   
         H         H         1.0       0.965153352478402   0.016226498754543517         0.5504801126507959 1.0000   
         H         H         1.0       0.9696127661252614  0.002692744117171131         0.6744157681845407 1.0000   
         H         H         1.0       0.9619872019581274  0.02241167108156894           0.6558549679161251 1.0000   
         C         C         1.0       0.8494325394952507  0.8868541077865869  0.537164507821417  1.0000   
         C         C         1.0       0.8425700357033695  0.9045093097657597  0.5561608582967955 1.0000   
         H         H         1.0       0.8463639279155396  0.88767491249909    0.4915936278721285 1.0000   
         H         H         1.0       0.8414843307838933  0.8769804318455541  0.5574714016031718 1.0000   
         H         H         1.0       0.8517740805025019  0.9144157885977511  0.5495673219185898 1.0000   
         H         H         1.0       0.8401717409075842  0.9041757807371407  0.6015500885958741 1.0000   
         C         C         1.0       0.8444457919702725  0.9548524554850589  0.5681178829331038 1.0000   
         C         C         1.0       0.8299685025746903  0.9654146753678626  0.5899189722380904 1.0000   
         H         H         1.0       0.8445405004735712  0.9553493606340647  0.5210065248216078 1.0000   
         H         H         1.0       0.8415760849859595  0.9417060969528334  0.5768232255583579 1.0000   
         H         H         1.0       0.8218259358733814  0.968608490971294   0.5516112371053113 1.0000   
         H         H         1.0       0.8339331049987373  0.9780940678698203  0.6019489120579006 1.0000   
         C         C         1.0       0.9429699960532915  0.860647566460045   0.8168465340487449 1.0000   
         C         C         1.0       0.9617572889243308  0.853938459137283   0.8178639024361132 1.0000   
         H         H         1.0       0.9424660111999681  0.8719907434523986  0.844889415287135  1.0000   
         H         H         1.0       0.9340808159222447  0.8520801132518994  0.8405169088066188 1.0000   
         H         H         1.0       0.9651611717618952  0.851709630381227   0.8620144052544145 1.0000   
         H         H         1.0       0.9713530440767146  0.8627004979075478  0.8041331983140171 1.0000   
         C         C         1.0       0.9772834780833295  0.9879037026764567  0.4170252968540027 1.0000   
         C         C         1.0       0.958932023797526   0.9809668465079778  0.4193790350180358 1.0000   
         H         H         1.0       0.9853838306723661  0.9765391249332235  0.41823104319936694          1.0000   
         H         H         1.0       0.9792476944388128  0.9947357148872104  0.45662270172148367          1.0000   
         H         H         1.0       0.9568741595483857  0.977331643050152   0.46342988380446204          1.0000   
         H         H         1.0       0.9502686579028051  0.9912345714592191  0.41065511994005655          1.0000   
         C         C         1.0       0.8760581258822495  0.9761563901445722  0.9567528463116157 1.0000   
         C         C         1.0       0.8625726590262816  0.9832545612510216  0.9949307922043599 1.0000   
         H         H         1.0       0.8704315408502384  0.9716305676350637  0.9164132051600267 1.0000   
         H         H         1.0       0.8853009798878005  0.9862884110884259  0.9426355041225635 1.0000   
         H         H         1.0       0.858565953065021   0.9961103397413028  0.9780043418702506 1.0000   
         H         H         1.0       0.8669257293124696  0.9856020762494717  0.03798935241952672          1.0000   
         C         C         1.0       0.866815553255867   0.9420588723889268  0.4079993942633565 1.0000   
         C         C         1.0       0.8507439010031689  0.9370160128256055  0.3724456061046335 1.0000   
         H         H         1.0       0.8662882470021024  0.9364308265704705  0.4522131754544442 1.0000   
         H         H         1.0       0.8669713345277104  0.9559885026201231  0.41659682772074685          1.0000   
         H         H         1.0       0.8548412433334002  0.9377686595313439  0.32803878216084614          1.0000   
         H         H         1.0       0.8445062744296372  0.9246931090763426  0.3853547564945001 1.0000   
         C         C         1.0       0.9574262341323643  0.9732446299581605  0.8910404273076546 1.0000   
         C         C         1.0       0.9423420642824658  0.9798266540235514  0.8616274437856437 1.0000   
         H         H         1.0       0.9662172384061785  0.9677027437474475  0.8602960208109146 1.0000   
         H         H         1.0       0.9659059239377517  0.9831045567569086  0.9090867112810574 1.0000   
         H         H         1.0       0.9477476604564959  0.9916590002251301  0.8429376924017971 1.0000   
         H         H         1.0       0.9324145243340787  0.9838734491284855  0.8942252934745948 1.0000   
         C         C         1.0       0.9556445838020987  0.8565813216531815  0.3559144924379326 1.0000   
         C         C         1.0       0.9657785055859984  0.8561767468565689  0.4114223865766815 1.0000   
         H         H         1.0       0.9628177376399988  0.849932670412289   0.32171651898828674          1.0000   
         H         H         1.0       0.9446148942690076  0.8488081689618042  0.3625489251284192 1.0000   
         H         H         1.0       0.9782022726207711  0.8620486804296601  0.40429267546486153          1.0000   
         H         H         1.0       0.9701823222082553  0.8431977801328913  0.4157972211419892 1.0000   
         C         C         1.0       0.9241543706486428  0.8527245463401337  0.022000259918161017         1.0000   
         C         C         1.0       0.9397506257684499  0.8435266862408156  0.05016262728346099          1.0000   
         H         H         1.0       0.9130806900700723  0.847885532758022   0.04429547310978643          1.0000   
         H         H         1.0       0.9224398092833921  0.8483310960010008  0.9784996850441988 1.0000   
         H         H         1.0       0.9452745230329108  0.850887523160382   0.08319968726855609          1.0000   
         H         H         1.0       0.9490633093449663  0.8448796645469537  0.01820971845541397          1.0000   
         C         C         1.0       0.9647150073955238  0.4645078762241454  0.7920311794707411 1.0000   
         C         C         1.0       0.9834985624633894  0.4603352609479276  0.7788314758923438 1.0000   
         H         H         1.0       0.9634492007640434  0.47708124203361363           0.8084250238697689 1.0000   
         H         H         1.0       0.9596760086216279  0.45649090316880003           0.8279079195821412 1.0000   
         H         H         1.0       0.9850936757626872  0.44868349993655215           0.7518783148577328 1.0000   
         H         H         1.0       0.9886690382345514  0.4553079307304879  0.8187420426617452 1.0000   
         C         C         1.0       0.9710728288948962  0.5272491902262778  0.9068029343488153 1.0000   
         C         C         1.0       0.9519327134735299  0.5234755911035153  0.9092133100737645 1.0000   
         H         H         1.0       0.9791281465518368  0.5172341840168976  0.8903850533290465 1.0000   
         H         H         1.0       0.9726995230038507  0.5382101344074314  0.8803665210226266 1.0000   
         H         H         1.0       0.9461528417158456  0.5240792619489072  0.8647930652271165 1.0000   
         H         H         1.0       0.9445258309521034  0.5345869784764341  0.927755894170491  1.0000   
         C         C         1.0       0.9188389597645267  0.41334170275420956           0.7681313371434848 1.0000   
         C         C         1.0       0.9138984385467281  0.4057740338807886  0.827459939066865  1.0000   
         H         H         1.0       0.9123545488053665  0.42535748318062894           0.7553096666150622 1.0000   
         H         H         1.0       0.9316949260736455  0.4179910827284966  0.7745822132574173 1.0000   
         H         H         1.0       0.9222133571045641  0.3946362254851909  0.8411996785581285 1.0000   
         H         H         1.0       0.9002408874740317  0.4003943582386776  0.8238618867596263 1.0000   
         C         C         1.0       0.9214180348270343  0.4945366813619895  0.33180883627644236          1.0000   
         C         C         1.0       0.9319723418681475  0.4991617759325646  0.3861730838286818 1.0000   
         H         H         1.0       0.9068446041085599  0.4965111830344832  0.338971202641749  1.0000   
         H         H         1.0       0.9240663408222337  0.5041906509290548  0.29841101088485217          1.0000   
         H         H         1.0       0.9302734332221048  0.5129038087642073  0.3913006911006685 1.0000   
         H         H         1.0       0.9453475029770162  0.4967710400850841  0.37744066382149805          1.0000   
         C         C         1.0       0.9512758656864847  0.19381612680282717           0.777566604228187  1.0000   
         C         C         1.0       0.9644652639384045  0.17946923859785308           0.7813641818725636 1.0000   
         H         H         1.0       0.9550695938492918  0.20338243905680786           0.8103860138728545 1.0000   
         H         H         1.0       0.938763894302548   0.189660252918571   0.7924295158949807 1.0000   
         H         H         1.0       0.9637759967270451  0.17294424742137898           0.8215798509020429 1.0000   
         H         H         1.0       0.959706512262983   0.17004268537145814           0.7514368877229266 1.0000   
         C         C         1.0       0.9624075079412303  0.3537047123524434  0.4031474625222631 1.0000   
         C         C         1.0       0.9538927537342017  0.33643692492641003           0.38610308115795294          1.0000   
         H         H         1.0       0.9682315294314395  0.3609626274706784  0.3652039967652129 1.0000   
         H         H         1.0       0.9734136425146177  0.349122991547984   0.42807668487691203          1.0000   
         H         H         1.0       0.9631202279910551  0.3297301664937801  0.3588043243604775 1.0000   
         H         H         1.0       0.945041349018605   0.3389850038665746  0.35003378537260543          1.0000   
         C         C         1.0       0.9673301782341     0.21428566942731825           0.9391889593458893 1.0000   
         C         C         1.0       0.9534222840783533  0.20043577930332404           0.946585182701426  1.0000   
         H         H         1.0       0.9709203285675962  0.21501742398118917           0.8935981320389165 1.0000   
         H         H         1.0       0.979513833172447   0.21154287800417257           0.9590690040191732 1.0000   
         H         H         1.0       0.9508773026887857  0.1937062026286174  0.9059900528215803 1.0000   
         H         H         1.0       0.9413419862474744  0.20700869319593584           0.953027813428454  1.0000   
         C         C         1.0       0.9706003897698252  0.3250092073774945  0.7886382748286841 1.0000   
         C         C         1.0       0.961793053142024   0.33144613328908457           0.8423251088055784 1.0000   
         H         H         1.0       0.9784383206471665  0.3356125762120449  0.7752590921327507 1.0000   
         H         H         1.0       0.9794192426970919  0.31431006837111797           0.7963263256356498 1.0000   
         H         H         1.0       0.9528629411848529  0.34147228441849714           0.8318649393618373 1.0000   
         H         H         1.0       0.970262851251803   0.3392374407820185  0.8690260208812888 1.0000   
         C         C         1.0       0.9751954151723513  0.24968733927557224           0.3646309844298756 1.0000   
         C         C         1.0       0.9695760965903552  0.23057909296268123           0.36551874967359593          1.0000   
         H         H         1.0       0.9878991492170813  0.2495970888238218  0.3493998483231874 1.0000   
         H         H         1.0       0.9762618401094124  0.2548711030364234  0.4089422949239513 1.0000   
         H         H         1.0       0.9808434513874005  0.22304119376108794           0.366313047268308  1.0000   
         H         H         1.0       0.9643513174293931  0.22777691798528016           0.320301405033413  1.0000   
         C         C         1.0       0.985534395892427   0.3803045301621667  0.24902362043777918          1.0000   
         C         C         1.0       0.9876195688097799  0.36346592692910246           0.215961025170513  1.0000   
         H         H         1.0       0.9986888374850817  0.38646082187888575           0.24855854445633407          1.0000   
         H         H         1.0       0.9851257448747869  0.3759637714255624  0.293503639457928  1.0000   
         H         H         1.0       0.0005565527967976713         0.3592098073668542 0.22764292724096097          1.0000   
         H         H         1.0       0.989008306751947   0.3663068795716603  0.17186196131620196          1.0000   
         C         C         1.0       0.7405687480532287  0.5217328136821603  0.8365132431391938 1.0000   
         C         C         1.0       0.746328848697753   0.5366835123877598  0.7995529649272506 1.0000   
         H         H         1.0       0.729508401729641   0.5144220262656334  0.8190494267505571 1.0000   
         H         H         1.0       0.7355733868796147  0.5274451609969985  0.8776708182202954 1.0000   
         H         H         1.0       0.7571989963794965  0.5431978516053612  0.8212262584007084 1.0000   
         H         H         1.0       0.751687484794097   0.5314372456427439  0.7609078104414554 1.0000   
         C         C         1.0       0.843612820564787   0.389461723803308   0.5782795070119151 1.0000   
         C         C         1.0       0.842937673567767   0.3791154871089516  0.5242657686118141 1.0000   
         H         H         1.0       0.8505625358389949  0.3828106328798419  0.6125154776197166 1.0000   
         H         H         1.0       0.8508405714206813  0.40147062684633933           0.5638774109151593 1.0000   
         H         H         1.0       0.8353062131518083  0.3855532780222042  0.49254504066734545          1.0000   
         H         H         1.0       0.8366014896091666  0.3667656481368272  0.5298124307522724 1.0000   
         C         C         1.0       0.8500969367581064  0.5153999763544781  0.903918684688993  1.0000   
         C         C         1.0       0.8627682282022955  0.5135995860127759  0.9556775518389528 1.0000   
         H         H         1.0       0.8579090756880057  0.515893817194882   0.8676443306697915 1.0000   
         H         H         1.0       0.8435301568698609  0.5273719393562697  0.9085228502765262 1.0000   
         H         H         1.0       0.8719272225746066  0.5236058880153779  0.9537847869014605 1.0000   
         H         H         1.0       0.8565353111404486  0.5153687349358835  0.9964450223256308 1.0000   
         C         C         1.0       0.7933731367407806  0.5269210720033503  0.4102588400206134 1.0000   
         C         C         1.0       0.7844171950149711  0.5287503104915554  0.35198828430115214          1.0000   
         H         H         1.0       0.7862136354626962  0.5337362675965889  0.44176993621644695          1.0000   
         H         H         1.0       0.8047289324287582  0.5349176870769472  0.4094502593997018 1.0000   
         H         H         1.0       0.79230314099439    0.5326591639440357  0.3175988414084207 1.0000   
         H         H         1.0       0.7793485643931202  0.5174061629715533  0.3380300954432887 1.0000   
         C         C         1.0       0.7499671411148974  0.4080214174665663  0.48804134592862863          1.0000   
         C         C         1.0       0.7381577537590543  0.4088153234594075  0.5378099699490628 1.0000   
         H         H         1.0       0.741557245224465   0.40960223112714667           0.4507071051231153 1.0000   
         H         H         1.0       0.7546258629723026  0.395451703458112   0.48882115241090784          1.0000   
         H         H         1.0       0.7286635339688917  0.39810657452425335           0.5358570506132726 1.0000   
         H         H         1.0       0.7310862294041096  0.4200187154136803  0.5360665714689006 1.0000   
         C         C         1.0       0.7882187808376687  0.43121061777720304           0.12395177497759784          1.0000   
         C         C         1.0       0.783613434761293   0.42304425626876163           0.07029832819468473          1.0000   
         H         H         1.0       0.7983828775516914  0.44113363227866564           0.11952748819079786          1.0000   
         H         H         1.0       0.777509125716682   0.4402583416196908  0.13576461168388063          1.0000   
         H         H         1.0       0.770075716470427   0.4217685494243656  0.0780762626525604 1.0000   
         H         H         1.0       0.788433248879315   0.4101202631594823  0.06773717601838426          1.0000   
         C         C         1.0       0.8923314551441517  0.3671625362059679  0.2760506748941452 1.0000   
         C         C         1.0       0.8806287540613853  0.36781394654139143           0.3296158054533182 1.0000   
         H         H         1.0       0.9029567772449276  0.3572478685459493  0.2803488184562909 1.0000   
         H         H         1.0       0.885361673660724   0.3628206544020539  0.23966319273139974          1.0000   
         H         H         1.0       0.887340716114971   0.3729499546817658  0.3671271734295631 1.0000   
         H         H         1.0       0.8794028415007871  0.3541637612092909  0.34102613395863485          1.0000   
         C         C         1.0       0.840898269472854   0.48366403297126137           0.6803842064573904 1.0000   
         C         C         1.0       0.8543505057158827  0.47704266443023097           0.7201661990671704 1.0000   
         H         H         1.0       0.8449228908973078  0.4945174654566717  0.6564204144877994 1.0000   
         H         H         1.0       0.8315661032647069  0.48962738854331567           0.7092655959120433 1.0000   
         H         H         1.0       0.8549759716921579  0.48378258268387764           0.7608329294842169 1.0000   
         H         H         1.0       0.8485383938791741  0.46439308785432326           0.7300848049773253 1.0000   
         C         C         1.0       0.7429884952249289  0.1954327560183651  0.9430376160759867 1.0000   
         C         C         1.0       0.7522422928879259  0.17867968998153444           0.96188123932004   1.0000   
         H         H         1.0       0.7387335293911562  0.19335373893947203           0.8996305947940207 1.0000   
         H         H         1.0       0.7316383858976796  0.1975559691098289  0.9684614401446343 1.0000   
         H         H         1.0       0.7579587997641117  0.18002232150245878           0.004763087101151919         1.0000   
         H         H         1.0       0.7645968089028996  0.17712967817194025           0.9395303978901183 1.0000   
         C         C         1.0       0.861155077885145   0.3206205161879318  0.6829303441656387 1.0000   
         C         C         1.0       0.8468679939723799  0.31938020479965973           0.6392073122399218 1.0000   
         H         H         1.0       0.85696684486488    0.31374934007874306           0.7219694312757867 1.0000   
         H         H         1.0       0.8618859430245581  0.3340519116699818  0.6966370892740688 1.0000   
         H         H         1.0       0.8515237569921074  0.3081605535564362  0.6126020818351595 1.0000   
         H         H         1.0       0.8467816268009069  0.3303139607853215  0.6108146442850138 1.0000   
         C         C         1.0       0.8562060139349974  0.24071382657099147           0.006172874716243504         1.0000   
         C         C         1.0       0.8635287496752875  0.2581087459371813  0.9924994173895156 1.0000   
         H         H         1.0       0.8585938807822282  0.23791279775167037           0.0522696584921265 1.0000   
         H         H         1.0       0.8618293998616375  0.23065732823655546           0.9798611849689046 1.0000   
         H         H         1.0       0.8574149880230524  0.26839027604111637           0.019391133724512954         1.0000   
         H         H         1.0       0.8585531733077197  0.2612835423860797  0.9474483504855075 1.0000   
         C         C         1.0       0.7685190650420464  0.3567912247891751  0.9277077826318639 1.0000   
         C         C         1.0       0.7803182624935979  0.37209441759087075           0.9363075208222718 1.0000   
         H         H         1.0       0.755228330836812   0.3613113880965362  0.9281400238319372 1.0000   
         H         H         1.0       0.7693503062933761  0.3499838739132467  0.9652617765533249 1.0000   
         H         H         1.0       0.7922288417050443  0.36647439616489264           0.9499049739730928 1.0000   
         H         H         1.0       0.7766534336123927  0.3801405959504018  0.9736582228372823 1.0000   
         C         C         1.0       0.7378696718897138  0.18353616839267017           0.33501956895312324          1.0000   
         C         C         1.0       0.7212992891134564  0.18949424513957805           0.31353519347346165          1.0000   
         H         H         1.0       0.7433357627964061  0.1760420873286762  0.30074456377895575          1.0000   
         H         H         1.0       0.7347661888590834  0.17464803485050195           0.3696390393139388 1.0000   
         H         H         1.0       0.7188498975734924  0.20235826567924253           0.33282484256393663          1.0000   
         H         H         1.0       0.7223461422508914  0.19473511086241463           0.26908076023641114          1.0000   
         C         C         1.0       0.8622466001794082  0.3164782881454848  0.2531949639231272 1.0000   
         C         C         1.0       0.8716009552794043  0.30811361096431383           0.304465786410899  1.0000   
         H         H         1.0       0.8658170071855946  0.3296622496971421  0.2462184751379472 1.0000   
         H         H         1.0       0.8667475947549846  0.30994866639558755           0.21552513923023006          1.0000   
         H         H         1.0       0.86531696810042    0.29606118954087546           0.3097021690179609 1.0000   
         H         H         1.0       0.8692923941568018  0.3143021931290662  0.34599260426788286          1.0000   
         C         C         1.0       0.8468286237408856  0.22282571233891582           0.5215249767421895 1.0000   
         C         C         1.0       0.8542008598759294  0.20885544634029427           0.561644350870433  1.0000   
         H         H         1.0       0.8493897207515548  0.23643820999202428           0.5342433248463789 1.0000   
         H         H         1.0       0.8538515447449389  0.22093894975136122           0.4819392941870792 1.0000   
         H         H         1.0       0.850206461020988   0.19688597939165306           0.5434589408713296 1.0000   
         H         H         1.0       0.8466290047335534  0.2098192485441183  0.6019414000053687 1.0000   
         C         C         1.0       0.733293662176371   0.2973584907708809  0.5683052969628498 1.0000   
         C         C         1.0       0.7442741804492149  0.2965265445008415  0.5123605886457993 1.0000   
         H         H         1.0       0.7249320044112005  0.2873950301628809  0.5786208053901336 1.0000   
         H         H         1.0       0.7256282791383217  0.3089031616408337  0.5654678236550423 1.0000   
         H         H         1.0       0.7358854174212293  0.29870428842750957           0.47729676323369113          1.0000   
         H         H         1.0       0.7528636566955554  0.30723596951626664           0.5136416163960049 1.0000   
         C         C         1.0       0.7498920962747128  0.3174497615412467  0.09614898078026357          1.0000   
         C         C         1.0       0.7598896416172359  0.3198067771332384  0.04078383530909657          1.0000   
         H         H         1.0       0.7416527650926995  0.3284275101454194  0.10045254849214402          1.0000   
         H         H         1.0       0.740941650101628   0.30770232056084823           0.0906866496449399 1.0000   
         H         H         1.0       0.7687643696782628  0.3305492622064829  0.04577531516262745          1.0000   
         H         H         1.0       0.7525064005641404  0.3260110324588296  0.007492840988084781         1.0000   
         C         C         1.0       0.7645905108424782  0.35808325882840486           0.47250509917876066          1.0000   
         C         C         1.0       0.7718010498250336  0.3405924301287233  0.4918768452800864 1.0000   
         H         H         1.0       0.76019456206139    0.365076771097959   0.5086869627065703 1.0000   
         H         H         1.0       0.7524184773717478  0.3563517362472617  0.44876254954392536          1.0000   
         H         H         1.0       0.7619114634743833  0.33598389044779803           0.5207238887175846 1.0000   
         H         H         1.0       0.7824724713651152  0.3433969692804269  0.5193228154158832 1.0000

