data_0
_chemical_formula_structural 
                                        C6H4C38H24C6H4C38H24C6H4C38H24C6H4C38H24C6H4C38H24C6H4C38H24C6H4C38H24C6H4C38H24C6H4C38H24C6H4C38H24C6H4C38H24C6H4C38H24C6H4C38H24C6H4C38H24C6H4C38H24C6H4C38H24C6H4C38H24C6H4C38H24C6H4C38H24C6H4C38H24C6H4C38H24C6H4C38H24C6H4C38H24C6H4C38H24C6H4C38H24C6H4C38H24C6H4C38H24C6H4C38H24C6H4C38H24C6H4C38H24C6H4C38H24C6H4C38H24C2H4C2H4C2H4C2H4C2H4C2H4C2H4C2H4C2H4C2H4C2H4C2H4C2H4C2H4C2H4C2H4C2H4C2H4C2H4C2H4C2H4C2H4C2H4C2H4C2H4C2H4C2H4C2H4C2H4C2H4C2H4C2H4C2H4C2H4C2H4C2H4C2H4C2H4C2H4C2H4C2H4C2H4C2H4C2H4C2H4C2H4C2H4C2H4C2H4C2H4C2H4C2H4C2H4C2H4C2H4C2H4C2H4C2H4C2H4C2H4C2H4C2H4C2H4C2H4C2H4C2H4C2H4C2H4C2H4C2H4C2H4C2H4C2H4C2H4C2H4C2H4C2H4C2H4C2H4C2H4C2H4C2H4C2H4C2H4C2H4C2H4C2H4C2H4C2H4C2H4C2H4C2H4C2H4C2H4C2H4C2H4
_chemical_formula_sum                   'C1600 H1280'
_cell_length_a                          49.09888817005789
_cell_length_b                          48.93537893583445
_cell_length_c                          24.960477986629815
_cell_angle_alpha                       90.10803060144576
_cell_angle_beta                        90.69616567873832
_cell_angle_gamma                       89.75898501360967
_space_group_name_H-M_alt               'P 1'
_space_group_IT_number                  1
loop_
  _space_group_symop_operation_xyz
         'x, y, z' 
loop_
  _atom_site_type_symbol
  _atom_site_label
  _atom_site_symmetry_multiplicity
  _atom_site_fract_x
  _atom_site_fract_y
  _atom_site_fract_z
  _atom_site_occupancy
         C         C         1.0       0.14398708538928826           0.08341518598776475          0.4960412322039183 1.0000   
         C         C         1.0       0.12211827801858423           0.09435757509381815          0.5216942569216667 1.0000   
         C         C         1.0       0.12477885387728581           0.11115371691999587          0.5660545604814287 1.0000   
         C         C         1.0       0.15053485504566405           0.11665269786279096          0.584776379101524  1.0000   
         C         C         1.0       0.172388379331389   0.10566524478735582           0.5598954554873181 1.0000   
         C         C         1.0       0.16995418326705478           0.0898960718000712 0.5138423433575389 1.0000   
         H         H         1.0       0.10244419431114707           0.08837932350809495          0.5064165171397986 1.0000   
         H         H         1.0       0.10779969008737977           0.12121959963612136          0.5780115542311816 1.0000   
         H         H         1.0       0.19168454331763504           0.1098088958510932 0.5774384737024381 1.0000   
         H         H         1.0       0.18794298667026973           0.08413415841039673          0.49231617936555727          1.0000   
         C         C         1.0       0.18587300751743094           0.10635557056388255          0.6931788937998752 1.0000   
         C         C         1.0       0.1795839370690437  0.13290183727318913           0.6764791982393138 1.0000   
         C         C         1.0       0.19267880763746534           0.15461682703269988          0.7033741379171441 1.0000   
         C         C         1.0       0.21260731044857048           0.1496940252764309 0.7419835945274421 1.0000   
         C         C         1.0       0.21905149119048534           0.12307031511844617          0.7565925476528051 1.0000   
         C         C         1.0       0.2049853487938129  0.10189076742363357           0.7320245852032218 1.0000   
         C         C         1.0       0.15547153390180057           0.1379566877977654 0.6356399616204497 1.0000   
         C         C         1.0       0.1315283892438702  0.13910433670741748           0.6789814926383425 1.0000   
         C         C         1.0       0.1267100391543056  0.16224558250448975           0.7091477895058257 1.0000   
         C         C         1.0       0.10636860312273551           0.1635962270620047 0.7449388715822073 1.0000   
         C         C         1.0       0.0904914768021846  0.1418394632654174  0.756587202614924  1.0000   
         C         C         1.0       0.09430943342615161           0.11835155778221344          0.7275138042654206 1.0000   
         C         C         1.0       0.11591163467278695           0.11585150368726203          0.6912906947999781 1.0000   
         C         C         1.0       0.1823700566444074  0.17153622322045595           0.576998499688957  1.0000   
         C         C         1.0       0.18384160077378994           0.1909846399469982 0.5388338275552229 1.0000   
         C         C         1.0       0.16109032905643825           0.2067574555536128 0.5224896210838577 1.0000   
         C         C         1.0       0.13703574613189445           0.19762662565609712          0.5421048098168554 1.0000   
         C         C         1.0       0.1343791267085291  0.1782515737189167  0.5808784563097966 1.0000   
         C         C         1.0       0.15798925895323998           0.16535372411302357          0.5995738750917111 1.0000   
         C         C         1.0       0.16383712834554243           0.23200098483177023          0.48079357844754206          1.0000   
         C         C         1.0       0.18651070947486978           0.2871179750554582 0.6127306644754883 1.0000   
         C         C         1.0       0.20711784289056745           0.2731629409713055 0.5847574595185623 1.0000   
         C         C         1.0       0.20084314663311634           0.2569627918731178 0.5418423357982755 1.0000   
         C         C         1.0       0.1733322254196725  0.2530841838619081  0.5271462638712314 1.0000   
         C         C         1.0       0.15290160117163307           0.26798268268832304          0.5555211340190286 1.0000   
         C         C         1.0       0.15954633677732719           0.2853340149013607 0.5960716396732871 1.0000   
         C         C         1.0       0.13815395364152377           0.24252739446192162          0.44486815863256324          1.0000   
         C         C         1.0       0.1167813267561122  0.22556519100909683           0.4293015172153376 1.0000   
         C         C         1.0       0.0942412846882188  0.23542872730453773           0.4000014459436096 1.0000   
         C         C         1.0       0.09318722334996044           0.2612924262964454 0.38599933153331023          1.0000   
         C         C         1.0       0.114752578953629   0.2789968696930783  0.39829773246728145          1.0000   
         C         C         1.0       0.13742084063660523           0.26908412004859145          0.4268381411332597 1.0000   
         C         C         1.0       0.2004172205496365  0.2477588050350635  0.41191774618646027          1.0000   
         C         C         1.0       0.2171368566560955  0.24360666249976606           0.3690970582009553 1.0000   
         C         C         1.0       0.21767487481515946           0.21780376939460727          0.3481401408344703 1.0000   
         C         C         1.0       0.2030529498986066  0.19637011792239195           0.36743364932522643          1.0000   
         C         C         1.0       0.1851150095277011  0.2014224803511445  0.4082086048043199 1.0000   
         C         C         1.0       0.18426281118993224           0.22670004748409797          0.43353724334230753          1.0000   
         H         H         1.0       0.17478081109930824           0.08915939295399132          0.6765781281863796 1.0000   
         H         H         1.0       0.18607433870702    0.17615154983355802           0.6998930285021141 1.0000   
         H         H         1.0       0.22266103532820067           0.16572502305543602          0.7643256478307549 1.0000   
         H         H         1.0       0.20932123976128242           0.08110331764809375          0.7429235731648928 1.0000   
         H         H         1.0       0.13981859056968376           0.18016769013177608          0.7049223474010641 1.0000   
         H         H         1.0       0.09946080089446702           0.18322018984433455          0.7603492673357323 1.0000   
         H         H         1.0       0.08164505269401852           0.10022259316067084          0.7364461435752646 1.0000   
         H         H         1.0       0.11905321527183618           0.09681968869618607          0.6712883343784227 1.0000   
         H         H         1.0       0.20098384650140771           0.1614008705085482 0.5885188247065027 1.0000   
         H         H         1.0       0.20269508659400343           0.19405845086133508          0.5211097059018545 1.0000   
         H         H         1.0       0.11910934314767962           0.20562779891132052          0.5301202196165927 1.0000   
         H         H         1.0       0.11443414740484839           0.173878688402414  0.5963012966419052 1.0000   
         H         H         1.0       0.22760249614937142           0.27197301763327014          0.6031885340656966 1.0000   
         H         H         1.0       0.2166452504051725  0.244891346707009   0.5224947047646678 1.0000   
         H         H         1.0       0.13182657030161415           0.2648518318562755 0.5433759246967039 1.0000   
         H         H         1.0       0.14487535795219042           0.29809965725066245          0.6140816692003916 1.0000   
         H         H         1.0       0.11713184774358698           0.20423774735384517          0.43932909747216214          1.0000   
         H         H         1.0       0.07788168366113912           0.22196746377073007          0.3951056814516622 1.0000   
         H         H         1.0       0.11451750083088541           0.30051026827101374          0.38836833318866415          1.0000   
         H         H         1.0       0.15456035944553376           0.28317058068087453          0.43010205619870634          1.0000   
         H         H         1.0       0.19746472776839885           0.2680575186298274 0.4300789358666341 1.0000   
         H         H         1.0       0.22718532140730355           0.26150293277470493          0.35025743398159503          1.0000   
         H         H         1.0       0.208240897758761   0.17583325367370445           0.35407296555540824          1.0000   
         H         H         1.0       0.1740601493422351  0.18427914579940702           0.42106085870631227          1.0000   
         C         C         1.0       0.08086616215234906           0.9189463711447293 0.9051125519279887 1.0000   
         C         C         1.0       0.06006154695993344           0.9345375115388915 0.9214316292368008 1.0000   
         C         C         1.0       0.046100252984806175          0.9493862423726271 0.8832649697646443 1.0000   
         C         C         1.0       0.05449634935763854           0.9525440227422256 0.8321838647474292 1.0000   
         C         C         1.0       0.07727554692980175           0.9374107878945437 0.81632955160442   1.0000   
         C         C         1.0       0.08780626788725451           0.919662499830271  0.8522539555313522 1.0000   
         H         H         1.0       0.05515097843438372           0.9339729093811071 0.9619342559938528 1.0000   
         H         H         1.0       0.030245608675129265          0.9625467594639339 0.8987711708937257 1.0000   
         H         H         1.0       0.0878754223764807  0.940845814079112   0.7775488036238558 1.0000   
         H         H         1.0       0.1067537393947501  0.9111267522841017  0.8409964241406223 1.0000   
         C         C         1.0       0.08337525252581997           0.008607309823271514         0.8200512628662049 1.0000   
         C         C         1.0       0.05592292947459485           0.0035582118382386785        0.8283899043299544 1.0000   
         C         C         1.0       0.042689263433024024          0.018564354453600718         0.866480877178032  1.0000   
         C         C         1.0       0.0547399841969286  0.0424070861908461  0.8857773779750258 1.0000   
         C         C         1.0       0.08082170542205232           0.04926120780201293          0.8729738810403559 1.0000   
         C         C         1.0       0.09510953880652082           0.03156236600673301          0.8382205525865716 1.0000   
         C         C         1.0       0.041433648420579845          0.9776993130124038 0.7981951096475254 1.0000   
         C         C         1.0       0.008716525249061968          0.9753913835179331 0.7972900534906883 1.0000   
         C         C         1.0       0.99347118104904    0.9985882049838527  0.7863237862613629 1.0000   
         C         C         1.0       0.965458069255032   0.9974169646140332  0.7882475887163766 1.0000   
         C         C         1.0       0.9520824475511173  0.9738382725225291  0.7933719309880144 1.0000   
         C         C         1.0       0.9676090818620274  0.9501096417302443  0.8006843384014009 1.0000   
         C         C         1.0       0.9950682901696261  0.9509100748615243  0.8048653427457906 1.0000   
         C         C         1.0       0.04876738256142153           0.0007145362625755602        0.7093343551823745 1.0000   
         C         C         1.0       0.0558202687688107  0.0008418618614947082        0.6576014439421525 1.0000   
         C         C         1.0       0.05339665100176339           0.977522072485337  0.6289249611037128 1.0000   
         C         C         1.0       0.04811715666944723           0.9536427723402281 0.6554475614814728 1.0000   
         C         C         1.0       0.04453344025093573           0.9527548889607469 0.7082524999851356 1.0000   
         C         C         1.0       0.046817901831418644          0.9765167415825959 0.7383472932783335 1.0000   
         C         C         1.0       0.0561271112185609  0.9783856527783422  0.5639809608269868 1.0000   
         C         C         1.0       0.11950345578810741           0.024478234630437745         0.48481596415629036          1.0000   
         C         C         1.0       0.09401894991722778           0.02363794289715515          0.45988737037178484          1.0000   
         C         C         1.0       0.07358861204832876           0.010093888515646077         0.48657190570369013          1.0000   
         C         C         1.0       0.07657375150213676           0.9994471734649383 0.5374778857184607 1.0000   
         C         C         1.0       0.10155766850318301           0.002966624276913743         0.5624593189859831 1.0000   
         C         C         1.0       0.12283382135679773           0.014971074592135203         0.536997425568991  1.0000   
         C         C         1.0       0.026142363392596332          0.9840480178504287 0.5497363520753578 1.0000   
         C         C         1.0       0.005658178010242265          0.9646310453288361 0.5480187490544165 1.0000   
         C         C         1.0       0.9800958131083874  0.9710135271548646  0.5382177518527279 1.0000   
         C         C         1.0       0.9720043964141832  0.9977343014308994  0.5376878253444364 1.0000   
         C         C         1.0       0.9901994037511953  0.01782597174152456           0.546369174674365  1.0000   
         C         C         1.0       0.01704105274606116           0.011959803610414932         0.5498200514076619 1.0000   
         C         C         1.0       0.06221109997907206           0.9451107377541379 0.48115608208233746          1.0000   
         C         C         1.0       0.07899973602628803           0.9285814054374258 0.45250770281324537          1.0000   
         C         C         1.0       0.10336502306489628           0.9196237757474893 0.47498032280638014          1.0000   
         C         C         1.0       0.10891929486997146           0.9254580809884358 0.525884498453375  1.0000   
         C         C         1.0       0.09187350749043337           0.9411313247781233 0.5569426049363246 1.0000   
         C         C         1.0       0.06781942142012122           0.9524035525902806 0.5345868929406482 1.0000   
         H         H         1.0       0.09671860696587259           0.9954345459905087 0.7967950008917438 1.0000   
         H         H         1.0       0.02208661598714245           0.014985887704247913         0.8767230252933708 1.0000   
         H         H         1.0       0.04328288617653151           0.056367236293090484         0.9097248611443464 1.0000   
         H         H         1.0       0.11535292519652823           0.035311466735722385         0.8273372513237596 1.0000   
         H         H         1.0       0.0027660027761149397         0.018678985097059453         0.785304163376882  1.0000   
         H         H         1.0       0.954758283942141   0.016595241065145983         0.7867032686549118 1.0000   
         H         H         1.0       0.9596624765632429  0.9302789468456293  0.8136294088929239 1.0000   
         H         H         1.0       0.0053162731788980455         0.9323651938119036 0.8153781955470116 1.0000   
         H         H         1.0       0.04396328998426287           0.019356227870096276         0.7272274870640768 1.0000   
         H         H         1.0       0.058382173389976914          0.019499066009245336         0.6373378610773004 1.0000   
         H         H         1.0       0.04213279242421275           0.9348279885496379 0.6321564277079311 1.0000   
         H         H         1.0       0.039649035390046494          0.9347773976325259 0.7299948550690134 1.0000   
         H         H         1.0       0.08836698329170298           0.033129877947124964         0.4217948755466809 1.0000   
         H         H         1.0       0.05526401591013644           0.009978314515039832         0.4648799689880965 1.0000   
         H         H         1.0       0.10376437409037442           0.9947893342019425 0.6026196202463037 1.0000   
         H         H         1.0       0.14196211008455745           0.018514306513287115         0.5581314258991351 1.0000   
         H         H         1.0       0.011929772045416565          0.9432179729916742 0.5500799227266593 1.0000   
         H         H         1.0       0.9644138300620034  0.9563145389899401  0.5327091417503836 1.0000   
         H         H         1.0       0.9829075026707017  0.037966236861503466         0.5510453257015371 1.0000   
         H         H         1.0       0.030867986606111675          0.028356921676155222         0.5606683055775392 1.0000   
         H         H         1.0       0.04251398261227355           0.9526176299058571 0.4625172687681185 1.0000   
         H         H         1.0       0.07066130648013211           0.9234164048900906 0.4130404223095548 1.0000   
         H         H         1.0       0.12666709592529218           0.9165867594495181 0.5447508238483052 1.0000   
         H         H         1.0       0.09693446128646772           0.9450712492041553 0.5976307574036294 1.0000   
         C         C         1.0       0.3614692859123107  0.22382209920142324           0.023688072310172892         1.0000   
         C         C         1.0       0.36147929859328115           0.24003270041156735          0.9803948855250706 1.0000   
         C         C         1.0       0.338147361904047   0.24110553337179366           0.9478442179191323 1.0000   
         C         C         1.0       0.3168891608621919  0.22407838143151157           0.958403238604079  1.0000   
         C         C         1.0       0.31718341874072786           0.2088958099471164 0.0011461917194075522        1.0000   
         C         C         1.0       0.339299248963318   0.2073617345837055  0.033876774161337275         1.0000   
         H         H         1.0       0.3792720853552835  0.25050954404879067           0.9681510065225533 1.0000   
         H         H         1.0       0.3394176358334418  0.2521670353715793  0.9101138889183588 1.0000   
         H         H         1.0       0.29908470156468087           0.199094318646239  0.011218068151050531         1.0000   
         H         H         1.0       0.3373200816654581  0.19731324343138906           0.07248451146509494          1.0000   
         C         C         1.0       0.28825736646120365           0.17317579709405032          0.9056757753723106 1.0000   
         C         C         1.0       0.2744569642936671  0.19828047207474786           0.9104432239269609 1.0000   
         C         C         1.0       0.2476354584250971  0.20044866169454317           0.8926119439138844 1.0000   
         C         C         1.0       0.23444379487444983           0.1769932603645204 0.8770169269964204 1.0000   
         C         C         1.0       0.24769186081604588           0.1526956617765427 0.8747749453077626 1.0000   
         C         C         1.0       0.27409970348596324           0.15011483821343144          0.8897932831046885 1.0000   
         C         C         1.0       0.2908821926424848  0.2254725849336636  0.9181335473215663 1.0000   
         C         C         1.0       0.30057667435125296           0.22943553194393426          0.8581308453395761 1.0000   
         C         C         1.0       0.28820004044462394           0.24798523847715548          0.821922458979322  1.0000   
         C         C         1.0       0.2961502393955834  0.24905293082359603           0.7690444721440537 1.0000   
         C         C         1.0       0.31718301475454114           0.23241167599714915          0.7520420792336803 1.0000   
         C         C         1.0       0.3299106867814747  0.2143252319400845  0.7869568500414426 1.0000   
         C         C         1.0       0.32231042720262254           0.21509315440812107          0.8401190183654007 1.0000   
         C         C         1.0       0.25640074083794806           0.2422724452911088 0.9913009849404102 1.0000   
         C         C         1.0       0.24703053656424584           0.2619959818729717 0.025955977801863428         1.0000   
         C         C         1.0       0.2538521811576467  0.2895745690978903  0.01707265713082151          1.0000   
         C         C         1.0       0.2695640961906014  0.2956784493510845  0.9730825442777965 1.0000   
         C         C         1.0       0.2793565987592988  0.2754658666037517  0.9420148179876159 1.0000   
         C         C         1.0       0.273513462564516   0.2484926509392857  0.9490823807012808 1.0000   
         C         C         1.0       0.2421610159324483  0.31536597476596784           0.05112752412216781          1.0000   
         C         C         1.0       0.1791418610789769  0.34143403206720363           0.934703409343029  1.0000   
         C         C         1.0       0.1754969686475392  0.31926617323068873           0.9653839152403692 1.0000   
         C         C         1.0       0.1953328379255483  0.3107110449210371  0.004540850088152526         1.0000   
         C         C         1.0       0.21963437396767718           0.32524913405255773          0.00942232190433745          1.0000   
         C         C         1.0       0.2236457552372563  0.34495756629989577           0.9694136346564177 1.0000   
         C         C         1.0       0.20379112119127518           0.3546856536754878 0.9342642911725163 1.0000   
         C         C         1.0       0.26354025586349655           0.3383307020557078 0.06858522115296029          1.0000   
         C         C         1.0       0.2900924888161523  0.3328071984469825  0.08004209933047335          1.0000   
         C         C         1.0       0.3078112619468918  0.3518435560554628  0.0993128507767369 1.0000   
         C         C         1.0       0.29762796662529506           0.3759603942319043 0.11720593503037646          1.0000   
         C         C         1.0       0.26960115716017763           0.38135419817250654          0.10765370009621655          1.0000   
         C         C         1.0       0.25349108495072464           0.3626567473533278 0.08338711129474574          1.0000   
         C         C         1.0       0.204835962165942   0.32014165610359374           0.12456868526943854          1.0000   
         C         C         1.0       0.19533673590381298           0.31633379436313847          0.17456263389488788          1.0000   
         C         C         1.0       0.21157636191679172           0.3027979860470892 0.2104047102213326 1.0000   
         C         C         1.0       0.2371486444887661  0.2923545489569266  0.1984721528631229 1.0000   
         C         C         1.0       0.2448140169448448  0.29287665259347984           0.14509375304131678          1.0000   
         C         C         1.0       0.22940649466668253           0.3077413859922973 0.10811853774052405          1.0000   
         H         H         1.0       0.30874713750893273           0.1690821410654023 0.9154781881344881 1.0000   
         H         H         1.0       0.23860560497588745           0.21953307067971678          0.8881840970885952 1.0000   
         H         H         1.0       0.21456985199178008           0.17933981619863884          0.8615522110453503 1.0000   
         H         H         1.0       0.28594143206641137           0.12981872337346478          0.8843336336527379 1.0000   
         H         H         1.0       0.2715949942696136  0.26036022000029274           0.834046148769735  1.0000   
         H         H         1.0       0.2822836894154713  0.25833771773531244           0.739087482257819  1.0000   
         H         H         1.0       0.34381454208210244           0.19964667220426233          0.7738028587522968 1.0000   
         H         H         1.0       0.33176810831821096           0.201667139648584  0.8668024214445347 1.0000   
         H         H         1.0       0.24997558605793826           0.21989411391629726          0.9981610733574876 1.0000   
         H         H         1.0       0.23166807414763121           0.2567259989676638 0.056508708496341375         1.0000   
         H         H         1.0       0.27398944512511686           0.316742586549712  0.96960171346064   1.0000   
         H         H         1.0       0.2899589473584358  0.28159579325485906           0.9070012290220979 1.0000   
         H         H         1.0       0.15872556667465745           0.3061085880067343 0.9593560802492535 1.0000   
         H         H         1.0       0.19099713240689717           0.2930992006693126 0.028959442800934543         1.0000   
         H         H         1.0       0.24122047831603313           0.35758116224484393          0.9672559706947704 1.0000   
         H         H         1.0       0.20877312218580946           0.3699238630313601 0.902014774262934  1.0000   
         H         H         1.0       0.29939758086555496           0.31502345236243984          0.06832678862063668          1.0000   
         H         H         1.0       0.32878835672356194           0.34518229892502433          0.10237048528809733          1.0000   
         H         H         1.0       0.2607057661446276  0.40039051495851874           0.1215572161170736 1.0000   
         H         H         1.0       0.23171795296045578           0.36941473300032984          0.08416601356472553          1.0000   
         H         H         1.0       0.19411031718611693           0.33597138579842434          0.10145812253586683          1.0000   
         H         H         1.0       0.17740358396413167           0.3271694955578026 0.1869887342306755 1.0000   
         H         H         1.0       0.2500796084315033  0.282461614843878   0.22772296908208023          1.0000   
         H         H         1.0       0.2643687986172091  0.2864729958972916  0.13254162788701374          1.0000   
         C         C         1.0       0.5492058180519908  0.39077949408673446           0.6460967816926583 1.0000   
         C         C         1.0       0.5288623925467154  0.40819600006533185           0.65984394834595   1.0000   
         C         C         1.0       0.5069926831905576  0.39923748435080847           0.6867516773427487 1.0000   
         C         C         1.0       0.5044531943140708  0.37333124440165216           0.7082498935832935 1.0000   
         C         C         1.0       0.5241542639602434  0.354844662486232   0.6916398323917148 1.0000   
         C         C         1.0       0.5469420733870283  0.36387754850274495           0.6630559194465182 1.0000   
         H         H         1.0       0.5280892427683263  0.42894518554283484           0.647114452162934  1.0000   
         H         H         1.0       0.4904405758797765  0.41499489374344173           0.692394944598558  1.0000   
         H         H         1.0       0.527201759404494   0.3357969092015937  0.7092364445249418 1.0000   
         H         H         1.0       0.5628867905306756  0.3494703955802872  0.6554189737340054 1.0000   
         C         C         1.0       0.46139826807165885           0.326373152635712  0.6806800156473447 1.0000   
         C         C         1.0       0.45873801931964364           0.3536599549238182 0.6970463196277775 1.0000   
         C         C         1.0       0.4456177244040382  0.37107519822681095           0.6611862374123276 1.0000   
         C         C         1.0       0.4323084421997481  0.36020809945003157           0.6170282179406297 1.0000   
         C         C         1.0       0.43386814822749165           0.33298230484841435          0.604743106687429  1.0000   
         C         C         1.0       0.44957459397275423           0.3162033096756267 0.6358827974498815 1.0000   
         C         C         1.0       0.47958355297971744           0.3637436749651822 0.7440591361803339 1.0000   
         C         C         1.0       0.471828720961307   0.38806799090239813           0.7808835111493068 1.0000   
         C         C         1.0       0.49180071287784133           0.40119638071975744          0.8110401806703605 1.0000   
         C         C         1.0       0.4860993952255729  0.42563676709839005           0.8361257751113821 1.0000   
         C         C         1.0       0.4622862100438113  0.43873710955326256           0.8239424070986994 1.0000   
         C         C         1.0       0.4410792232222253  0.42457056466608994           0.7997905200852797 1.0000   
         C         C         1.0       0.44651536130755815           0.4001381918516424 0.7789429657496075 1.0000   
         C         C         1.0       0.460599385436042   0.32754764441065304           0.8087019557128056 1.0000   
         C         C         1.0       0.4599191087464008  0.3112064836442619  0.853783555231169  1.0000   
         C         C         1.0       0.4839970048484136  0.30729627846545277           0.8837241854335793 1.0000   
         C         C         1.0       0.5077152303331801  0.31864321705813936           0.8606666083590357 1.0000   
         C         C         1.0       0.5073240646446163  0.3353443601231548  0.8168014161102274 1.0000   
         C         C         1.0       0.48355793324900154           0.3398898734430804 0.7894557328889541 1.0000   
         C         C         1.0       0.48513093492332815           0.300292711909921  0.9470669368637243 1.0000   
         C         C         1.0       0.4333906452609498  0.23683916787921958           0.00802222674214148          1.0000   
         C         C         1.0       0.44295453175202865           0.25677156443810395          0.04212824145805327          1.0000   
         C         C         1.0       0.4584796255059776  0.27754154178434587           0.021798046505223212         1.0000   
         C         C         1.0       0.46628699396770956           0.2771070420698584 0.9687831969775009 1.0000   
         C         C         1.0       0.45598838217192067           0.2573042360242438 0.9364005206324774 1.0000   
         C         C         1.0       0.4374872197219615  0.23918375768061528           0.9536408559481665 1.0000   
         C         C         1.0       0.4725356708714962  0.33024169891053773           0.9665843510197654 1.0000   
         C         C         1.0       0.4916132422717887  0.35063186399439056           0.9768862384031085 1.0000   
         C         C         1.0       0.48339044061725717           0.376071092480548  0.9949879485530808 1.0000   
         C         C         1.0       0.45583993315361254           0.3822567156352328 0.9922041397944179 1.0000   
         C         C         1.0       0.43814136781946544           0.36270200270482333          0.9772963674875808 1.0000   
         C         C         1.0       0.4455884056702613  0.3373011014531204  0.9641831897860887 1.0000   
         C         C         1.0       0.5245156858312346  0.29458324071562786           0.016384580029430884         1.0000   
         C         C         1.0       0.54563971202438    0.278655628680862   0.033581113286752506         1.0000   
         C         C         1.0       0.5549396223578003  0.25682527772152103           0.005776798020684204         1.0000   
         C         C         1.0       0.5451911565072228  0.2509226405167722  0.9563176689200702 1.0000   
         C         C         1.0       0.5253115522748144  0.26765624692905726           0.933942754270514  1.0000   
         C         C         1.0       0.5145715705038351  0.2895044333085588  0.9637338980777783 1.0000   
         H         H         1.0       0.4706352127397908  0.3118076031416183  0.7048103693670722 1.0000   
         H         H         1.0       0.44371660037734223           0.3912783426600997 0.6696852834206117 1.0000   
         H         H         1.0       0.42070360866820394           0.373959023867069  0.592840866150968  1.0000   
         H         H         1.0       0.45251830850752306           0.29447138377057575          0.6286129978408798 1.0000   
         H         H         1.0       0.5118370686173769  0.3915937386927511  0.8163792819119575 1.0000   
         H         H         1.0       0.5015122436872865  0.43484905158926795           0.860594385366934  1.0000   
         H         H         1.0       0.4216122550685927  0.4350187226152292  0.7970934245642861 1.0000   
         H         H         1.0       0.42906216499026106           0.39090993128325024          0.7564980372948871 1.0000   
         H         H         1.0       0.44117462217956993           0.33423533176880954          0.7926565010182837 1.0000   
         H         H         1.0       0.44032998853839866           0.30623758509839644          0.8702389815922899 1.0000   
         H         H         1.0       0.5259747164984789  0.31991752478875213           0.8806748967890242 1.0000   
         H         H         1.0       0.525376138651445   0.3461862006621501  0.8016013230607885 1.0000   
         H         H         1.0       0.4400552630047537  0.2578619075856032  0.08625842021308872          1.0000   
         H         H         1.0       0.463862827407587   0.29333596406815204           0.050288177832208625         1.0000   
         H         H         1.0       0.46172954481378936           0.2554859482531888 0.8957676464740636 1.0000   
         H         H         1.0       0.4277062902262974  0.22515395294531432           0.9238077605109221 1.0000   
         H         H         1.0       0.5115130765320677  0.34529061629731794           0.9767260465823998 1.0000   
         H         H         1.0       0.498946366164556   0.3906509080088265  0.007047115059450659         1.0000   
         H         H         1.0       0.4168704687881739  0.3657572381379775  0.9757721779633939 1.0000   
         H         H         1.0       0.42965646892567855           0.3228518116267759 0.9532266879308093 1.0000   
         H         H         1.0       0.5162870834706128  0.30571247365092324           0.047502684420391184         1.0000   
         H         H         1.0       0.5541304572582141  0.2813941302622632  0.07420130904641864          1.0000   
         H         H         1.0       0.5542912489058212  0.23437652513297622           0.9354871753618572 1.0000   
         H         H         1.0       0.5157187558134283  0.2626724591590856  0.8940829189557483 1.0000   
         C         C         1.0       0.04916617443876792           0.8512732147507771 0.3757092372961649 1.0000   
         C         C         1.0       0.05183737638483854           0.8790783702110229 0.36365260629398416          1.0000   
         C         C         1.0       0.02951750817556187           0.8944705705234823 0.3514241600225695 1.0000   
         C         C         1.0       0.004539230921805526          0.8823319516838964 0.34039750640366584          1.0000   
         C         C         1.0       0.0018381820743627042         0.8545071915857951 0.3487327462006492 1.0000   
         C         C         1.0       0.024214548346746856          0.8395781240459672 0.3698398196109947 1.0000   
         H         H         1.0       0.07074556797282372           0.8886076375089238 0.3665037560187203 1.0000   
         H         H         1.0       0.033632717682742674          0.9152041567867778 0.34329992104244755          1.0000   
         H         H         1.0       0.9824881793831043  0.8442934089450916  0.3433823869611053 1.0000   
         H         H         1.0       0.024727877949632715          0.8170565790508145 0.37432062934295585          1.0000   
         C         C         1.0       0.9680777088799886  0.8745699566415466  0.22476093993441465          1.0000   
         C         C         1.0       0.9833034297333088  0.894304259962823   0.25322231744601986          1.0000   
         C         C         1.0       0.0030088046025018578         0.9086334223221658 0.22770434912439247          1.0000   
         C         C         1.0       0.008956426210815938          0.9026023082133485 0.17711848925815582          1.0000   
         C         C         1.0       0.9933207729469659  0.8839701090914145  0.14773884563908357          1.0000   
         C         C         1.0       0.974337426064844   0.869634393401565   0.17228532737280455          1.0000   
         C         C         1.0       0.9800359028362277  0.9004244118872027  0.31873803657797706          1.0000   
         C         C         1.0       0.9816003918012723  0.9322679542084225  0.33238739150304986          1.0000   
         C         C         1.0       0.9861566878700923  0.9416892366820695  0.384077676959679  1.0000   
         C         C         1.0       0.9832319017717981  0.9686870743200467  0.3984966842423705 1.0000   
         C         C         1.0       0.9783199295979562  0.9872678149065413  0.35934649481344333          1.0000   
         C         C         1.0       0.9723509431344654  0.9789655433442026  0.3091886539714027 1.0000   
         C         C         1.0       0.9732560059198104  0.9521413989658953  0.2965949298657938 1.0000   
         C         C         1.0       0.9273867199915372  0.9042608601356328  0.30848137206551335          1.0000   
         C         C         1.0       0.9028982856050323  0.9077625081426156  0.3354665415772898 1.0000   
         C         C         1.0       0.8979345959393953  0.8955183491546925  0.3857646176528301 1.0000   
         C         C         1.0       0.9186577918466082  0.8804826574442374  0.4091464859796623 1.0000   
         C         C         1.0       0.9444566020291666  0.8830052492782722  0.3886735727089836 1.0000   
         C         C         1.0       0.9501004198350963  0.8943964347645865  0.3381493338795541 1.0000   
         C         C         1.0       0.8699981287487418  0.9039954933317618  0.41885419319746653          1.0000   
         C         C         1.0       0.7975718321687488  0.9361391461224877  0.3334519505176607 1.0000   
         C         C         1.0       0.8147882405143348  0.9173933583430629  0.30819407462774306          1.0000   
         C         C         1.0       0.8361538434437342  0.9065387050745989  0.33905880123856186          1.0000   
         C         C         1.0       0.8401418488495745  0.9123495432794303  0.3917608509802089 1.0000   
         C         C         1.0       0.8235161672648494  0.9319453957618923  0.4134294997971058 1.0000   
         C         C         1.0       0.8025612565131267  0.9438053894563854  0.3857634270904889 1.0000   
         C         C         1.0       0.8817882686560671  0.9286686245952998  0.45468004204358703          1.0000   
         C         C         1.0       0.8969656575242297  0.9217930422660645  0.49829827473674815          1.0000   
         C         C         1.0       0.9116068340854526  0.939570650916854   0.529214910763873  1.0000   
         C         C         1.0       0.9089867492081819  0.9677807554272778  0.5192984693798184 1.0000   
         C         C         1.0       0.893235839396801   0.9763619754903379  0.4739050045869693 1.0000   
         C         C         1.0       0.8804310677377022  0.9557266794774821  0.4410458519578763 1.0000   
         C         C         1.0       0.8460367799186577  0.8820374081174001  0.4978799832093259 1.0000   
         C         C         1.0       0.8390383423541768  0.8608245131508251  0.5298365974293542 1.0000   
         C         C         1.0       0.8428649693374047  0.8345792354557506  0.5107872191569572 1.0000   
         C         C         1.0       0.8516402501406933  0.8299474716908823  0.4599843165580392 1.0000   
         C         C         1.0       0.8601026231299438  0.851526483683124   0.4301268989901207 1.0000   
         C         C         1.0       0.8590819769660822  0.8780181201213408  0.4503927933049993 1.0000   
         H         H         1.0       0.9539839526570735  0.8603198615420616  0.24526947568607682          1.0000   
         H         H         1.0       0.014677864334700974          0.923728927835667  0.2494857584572043 1.0000   
         H         H         1.0       0.02422761069666657           0.9154875937594054 0.15591558369325434          1.0000   
         H         H         1.0       0.9632355009418208  0.8527614370649764  0.15303423029590507          1.0000   
         H         H         1.0       0.9890659466321801  0.9276731004146607  0.41653524655888985          1.0000   
         H         H         1.0       0.9874807882102438  0.9761819822575267  0.43897985820413843          1.0000   
         H         H         1.0       0.9669852230416902  0.9931307063927252  0.2760435899066916 1.0000   
         H         H         1.0       0.9648508752493522  0.9478165594678397  0.25766309141030824          1.0000   
         H         H         1.0       0.9282181888004863  0.9153818371383188  0.27061108457649535          1.0000   
         H         H         1.0       0.8883462902566831  0.9222910552811613  0.31796301986449405          1.0000   
         H         H         1.0       0.9164717599621959  0.8693191347698288  0.44755405077339616          1.0000   
         H         H         1.0       0.9614544531933229  0.8755112545423094  0.4143816644001753 1.0000   
         H         H         1.0       0.8141310710929561  0.9140850040981895  0.26665885850128757          1.0000   
         H         H         1.0       0.8502516976054759  0.8936135654543979  0.3189534230521134 1.0000   
         H         H         1.0       0.8267027631728522  0.9409496688088257  0.4554374445949738 1.0000   
         H         H         1.0       0.792607012631844   0.9601278404642402  0.4038179931430178 1.0000   
         H         H         1.0       0.9012848926916242  0.9013726018686853  0.5114792361892339 1.0000   
         H         H         1.0       0.9249465136170812  0.9335771946209729  0.5608543257389901 1.0000   
         H         H         1.0       0.8915061944401271  0.9978810832992663  0.4657904860399051 1.0000   
         H         H         1.0       0.8714483807632478  0.9639859288020063  0.40457671220315106          1.0000   
         H         H         1.0       0.841014234677118   0.9023634829799719  0.5100600164885685 1.0000   
         H         H         1.0       0.8287428713004706  0.865709719503337   0.5666467017855406 1.0000   
         H         H         1.0       0.8532554260589861  0.8092966871657219  0.4413711226482091 1.0000   
         H         H         1.0       0.8683218872997489  0.8467819385788157  0.3904189069003028 1.0000   
         C         C         1.0       0.7246995172763449  0.929479598414716   0.3144402697327055 1.0000   
         C         C         1.0       0.6988489631213576  0.9357435432733759  0.2979373022273812 1.0000   
         C         C         1.0       0.6808958931213918  0.9152062887250858  0.29238956102936375          1.0000   
         C         C         1.0       0.6863918087443738  0.888073716073136   0.30477558386949954          1.0000   
         C         C         1.0       0.7127236828076148  0.8824457478550423  0.32587433103219904          1.0000   
         C         C         1.0       0.7310380642931433  0.9029942183174946  0.32863673689189493          1.0000   
         H         H         1.0       0.6930951927046997  0.955796734015877   0.2917392487792734 1.0000   
         H         H         1.0       0.6610305496051121  0.9202221946735534  0.28059057504898893          1.0000   
         H         H         1.0       0.7172755274934906  0.8626931663190194  0.3436515761664435 1.0000   
         H         H         1.0       0.7503109769381233  0.8980212041056246  0.34601891636153087          1.0000   
         C         C         1.0       0.6969296903935197  0.8433278664952166  0.23183266285328286          1.0000   
         C         C         1.0       0.6772289089905071  0.8404155973032527  0.2699232186273122 1.0000   
         C         C         1.0       0.6685350732020734  0.8136847264820198  0.27844286762789633          1.0000   
         C         C         1.0       0.6785160129233829  0.7912295745627118  0.25165365197654144          1.0000   
         C         C         1.0       0.6992700012142821  0.7954386806714009  0.21420598423869847          1.0000   
         C         C         1.0       0.7079978002640801  0.8218150782072261  0.2049315199004887 1.0000   
         C         C         1.0       0.6644212589415801  0.8646662242507512  0.3029249624137142 1.0000   
         C         C         1.0       0.6371429048678261  0.8684785454275787  0.2690867392996353 1.0000   
         C         C         1.0       0.6143119212838294  0.8542308826034822  0.28482048758430734          1.0000   
         C         C         1.0       0.5923331980789547  0.8530526754196888  0.2509778096561058 1.0000   
         C         C         1.0       0.5930264846108355  0.8646236391769568  0.20055875911086496          1.0000   
         C         C         1.0       0.6157726982089979  0.879498051434295   0.18416879883797957          1.0000   
         C         C         1.0       0.6380143805599182  0.8807626086830422  0.21868599406128492          1.0000   
         C         C         1.0       0.6721813820371837  0.8443734159377164  0.39939539010818265          1.0000   
         C         C         1.0       0.678403863104073   0.8499516938548657  0.45296071227739965          1.0000   
         C         C         1.0       0.6661919283946467  0.8716063221557232  0.4782563359498504 1.0000   
         C         C         1.0       0.6492551183920363  0.8894655763716127  0.4470090831665444 1.0000   
         C         C         1.0       0.6464628515447197  0.8841236850684394  0.3941591952207897 1.0000   
         C         C         1.0       0.6587220735491025  0.8625047869033736  0.3686800197419617 1.0000   
         C         C         1.0       0.674659676404442   0.8820622125516242  0.5382201761827765 1.0000   
         C         C         1.0       0.6007010493747457  0.8870396005561554  0.6288379831746144 1.0000   
         C         C         1.0       0.6089695446387938  0.8630120172721789  0.6067637922407101 1.0000   
         C         C         1.0       0.6306690799431203  0.8620636595520107  0.5740830109735694 1.0000   
         C         C         1.0       0.6473861654957097  0.8846135445144947  0.5664982366827273 1.0000   
         C         C         1.0       0.6356346954975427  0.9097294336629609  0.5836305258596319 1.0000   
         C         C         1.0       0.6150794070705711  0.9102712966108206  0.6202246222146948 1.0000   
         C         C         1.0       0.6935666420997929  0.9086069100128668  0.5362712485048134 1.0000   
         C         C         1.0       0.7061323310562794  0.9163006730207219  0.4883545371904923 1.0000   
         C         C         1.0       0.7213947913887278  0.9385184718060189  0.4853233399128353 1.0000   
         C         C         1.0       0.7189839513349054  0.9577980657033387  0.5251141829434937 1.0000   
         C         C         1.0       0.7092883986491942  0.9505163429886196  0.5735795667691006 1.0000   
         C         C         1.0       0.6963463340906749  0.9255367953724284  0.5811835601002364 1.0000   
         C         C         1.0       0.6884818055616009  0.8472310290409347  0.6135344809917912 1.0000   
         C         C         1.0       0.7016153650741999  0.8230355468731579  0.6276823936533146 1.0000   
         C         C         1.0       0.7236934313677326  0.8136137046503501  0.600686632280412  1.0000   
         C         C         1.0       0.7331908948539563  0.8306340783037165  0.5624187541225271 1.0000   
         C         C         1.0       0.7198380250701133  0.8540212047545873  0.5474398184321249 1.0000   
         C         C         1.0       0.6945570071388025  0.8607404284975613  0.5682912084752197 1.0000   
         H         H         1.0       0.7041781845379541  0.8627573850858584  0.22631984419662995          1.0000   
         H         H         1.0       0.658374840233861   0.8084621250990259  0.312061796064716  1.0000   
         H         H         1.0       0.6711300521021909  0.7716726415722218  0.2663816848762244 1.0000   
         H         H         1.0       0.7243475636128165  0.8259810518368582  0.17458885799513246          1.0000   
         H         H         1.0       0.613591283150121   0.8424197654186395  0.3218256529503193 1.0000   
         H         H         1.0       0.5753772082695302  0.8410471915412546  0.2623987149765447 1.0000   
         H         H         1.0       0.617078221537462   0.8892001931216983  0.14590280264354655          1.0000   
         H         H         1.0       0.6556300614861136  0.8932965444640655  0.20780424088909827          1.0000   
         H         H         1.0       0.6845655345363357  0.8277778673304977  0.38621566291017567          1.0000   
         H         H         1.0       0.6927499931447731  0.8350618481009149  0.4711679090099296 1.0000   
         H         H         1.0       0.6404221550976884  0.9078989561625157  0.4659555074981484 1.0000   
         H         H         1.0       0.6368194800528055  0.9001645527251142  0.3685354905074836 1.0000   
         H         H         1.0       0.5989641061995923  0.8428271952454007  0.61063814134844   1.0000   
         H         H         1.0       0.6357720082341013  0.8427289968015228  0.5589481604197503 1.0000   
         H         H         1.0       0.6436252482462931  0.9301183219682062  0.5710524269762038 1.0000   
         H         H         1.0       0.6084965864691941  0.928962359098116   0.6361653995152204 1.0000   
         H         H         1.0       0.7070566643475229  0.9048911510594182  0.4522710592507942 1.0000   
         H         H         1.0       0.731169718177752   0.9427392396837262  0.44630531363828757          1.0000   
         H         H         1.0       0.7089310508575981  0.9626054786169859  0.6109383436035043 1.0000   
         H         H         1.0       0.6857650281114703  0.9246298816391954  0.618076554887095  1.0000   
         H         H         1.0       0.6699745264669711  0.8526891501534872  0.6331419319268256 1.0000   
         H         H         1.0       0.6913044641354701  0.8134455363282213  0.6579377057973467 1.0000   
         H         H         1.0       0.7530306026619565  0.8245724993387041  0.5445769687954529 1.0000   
         H         H         1.0       0.7281879307081551  0.8655186482662566  0.5154205400742005 1.0000   
         C         C         1.0       0.5615608478037176  0.6645544978783006  0.09925480897625559          1.0000   
         C         C         1.0       0.5572522261461863  0.6718358564873074  0.15065935971231395          1.0000   
         C         C         1.0       0.5620835030512202  0.698274021438031   0.1672064608051764 1.0000   
         C         C         1.0       0.5727024584482463  0.7166799392559464  0.13338186357519927          1.0000   
         C         C         1.0       0.5764452201137279  0.7098115173461754  0.08092990908911024          1.0000   
         C         C         1.0       0.5715206461088231  0.6844006922907642  0.06467221631435649          1.0000   
         H         H         1.0       0.5541887445420461  0.6568005926630734  0.17863736494485197          1.0000   
         H         H         1.0       0.5603055474714181  0.7022844433537836  0.20924103772547506          1.0000   
         H         H         1.0       0.5846607306389339  0.7247721097901035  0.05399610816935496          1.0000   
         H         H         1.0       0.5760980724284158  0.6784236729077058  0.025127552749058646         1.0000   
         C         C         1.0       0.6318743921044511  0.7336136155457507  0.12982547678952383          1.0000   
         C         C         1.0       0.6130895500913328  0.7537605194957475  0.13403033274073514          1.0000   
         C         C         1.0       0.6233730877732672  0.7810742802731421  0.135974459461737  1.0000   
         C         C         1.0       0.6504202920734249  0.7872589311768105  0.1280816121523658 1.0000   
         C         C         1.0       0.6672361620214163  0.7656026216212469  0.11778041466929536          1.0000   
         C         C         1.0       0.6578786802627016  0.7387196541194353  0.12023342525171678          1.0000   
         C         C         1.0       0.5829858456697935  0.7472297972654248  0.15250918246259343          1.0000   
         C         C         1.0       0.5848362776891788  0.7527695098404849  0.21751670274027854          1.0000   
         C         C         1.0       0.5755194755557567  0.7768379498808059  0.24303364408981415          1.0000   
         C         C         1.0       0.5791062899940054  0.7803784432425005  0.29703293309925083          1.0000   
         C         C         1.0       0.59039999934459    0.7613382633852169  0.3283733202756544 1.0000   
         C         C         1.0       0.600434884687162   0.7382645036259178  0.30504504996157655          1.0000   
         C         C         1.0       0.5986787341884408  0.7350939802528383  0.2507772018142413 1.0000   
         C         C         1.0       0.5610444531105465  0.7794343148349392  0.0767455323682793 1.0000   
         C         C         1.0       0.5389125348419831  0.7875945455027649  0.04602058558006217          1.0000   
         C         C         1.0       0.5128562408964936  0.7828265329860158  0.06260152500665428          1.0000   
         C         C         1.0       0.5103251369329189  0.7735258546860692  0.11496512925279834          1.0000   
         C         C         1.0       0.5322967442636221  0.7636746474022902  0.14379090797178679          1.0000   
         C         C         1.0       0.5583031477256003  0.7647132124478656  0.1253441671347338 1.0000   
         C         C         1.0       0.48858830961968247           0.778436476548212  0.018125385926558213         1.0000   
         C         C         1.0       0.49778105667533834           0.830036725141834  0.8778331685054078 1.0000   
         C         C         1.0       0.5150726765821739  0.807591450626519   0.8865462461758771 1.0000   
         C         C         1.0       0.5116020123043497  0.7922641454894876  0.9318918782858473 1.0000   
         C         C         1.0       0.4914543928745335  0.7971616574920775  0.9675091737389215 1.0000   
         C         C         1.0       0.47410951095415715           0.8195479628491041 0.9550453783350884 1.0000   
         C         C         1.0       0.4766933884664564  0.8347906364833844  0.91246493975558   1.0000   
         C         C         1.0       0.46177779959941134           0.786696564235405  0.050978914420123145         1.0000   
         C         C         1.0       0.43752286628572734           0.7717202270240898 0.04555520610758901          1.0000   
         C         C         1.0       0.4142174032398798  0.7771573997546334  0.07312857768186043          1.0000   
         C         C         1.0       0.41419376660112417           0.7986974850808733 0.1090857487787915 1.0000   
         C         C         1.0       0.43563210080630643           0.8171348882823705 0.10873724327591328          1.0000   
         C         C         1.0       0.4593311379377123  0.8103487362478133  0.08131836181983432          1.0000   
         C         C         1.0       0.4722136651816374  0.7405207160115808  0.955233596500958  1.0000   
         C         C         1.0       0.4777890530631188  0.7171272385293229  0.9275598913623392 1.0000   
         C         C         1.0       0.49918734785641916           0.7001358039086709 0.9402653498204243 1.0000   
         C         C         1.0       0.5135029749946758  0.7058282092520279  0.9871489281544862 1.0000   
         C         C         1.0       0.5076458525657003  0.7280100301026322  0.015563129453776359         1.0000   
         C         C         1.0       0.48846069853623586           0.7475435615068216 0.998419379688675  1.0000   
         H         H         1.0       0.6245896683608135  0.7116753406572404  0.13216091037476074          1.0000   
         H         H         1.0       0.6132624995955939  0.7993101449845915  0.1461520602979117 1.0000   
         H         H         1.0       0.6585105412215566  0.8073360803704764  0.13156264669025525          1.0000   
         H         H         1.0       0.6723930328808279  0.7229315709401951  0.11736489841783518          1.0000   
         H         H         1.0       0.5639179397432736  0.7915354632409279  0.21956772912218525          1.0000   
         H         H         1.0       0.5690397548436058  0.7973673592041486  0.31636534421593987          1.0000   
         H         H         1.0       0.6103439559576629  0.7224112773478508  0.3309278289589752 1.0000   
         H         H         1.0       0.6053650631076891  0.7158522771385458  0.23265810732418807          1.0000   
         H         H         1.0       0.5803929356830682  0.7829200420326288  0.06071687543317106          1.0000   
         H         H         1.0       0.5439116449838128  0.7959087308514805  0.006931934147127672         1.0000   
         H         H         1.0       0.49177098311194845           0.7658492542181524 0.12912635424145136          1.0000   
         H         H         1.0       0.5259441171567482  0.7525787169302169  0.17895587250731707          1.0000   
         H         H         1.0       0.5309992994919499  0.8019313890702761  0.8541383815299487 1.0000   
         H         H         1.0       0.523416995534087   0.7738725446030313  0.9407174672989692 1.0000   
         H         H         1.0       0.4568199039490075  0.8224851781454203  0.9815385977087344 1.0000   
         H         H         1.0       0.4638794808115033  0.8522168425615527  0.905795573725019  1.0000   
         H         H         1.0       0.43398716356136774           0.7526525642280524 0.02269592274858545          1.0000   
         H         H         1.0       0.39726492763459237           0.7646965700362833 0.06810645173242325          1.0000   
         H         H         1.0       0.4337960086124753  0.836807038119446   0.13146016293316945          1.0000   
         H         H         1.0       0.4758899373310606  0.8248771661377704  0.08340511814138818          1.0000   
         H         H         1.0       0.456989285365966   0.754807444787718   0.94192829873206   1.0000   
         H         H         1.0       0.46630553915310574           0.7165263342164747 0.8914934816000325 1.0000   
         H         H         1.0       0.5256526383481125  0.6914723261316926  0.006886353822856517         1.0000   
         H         H         1.0       0.5169673041592087  0.7293927607432049  0.05396711989585956          1.0000   
         C         C         1.0       0.5665356104044251  0.3806844383980961  0.33221521510400875          1.0000   
         C         C         1.0       0.5419667413440703  0.36920551879475816           0.3140541652288899 1.0000   
         C         C         1.0       0.5228646414620932  0.3837639270164191  0.28508857335619425          1.0000   
         C         C         1.0       0.5271552021059169  0.41018309321182544           0.26999163830451683          1.0000   
         C         C         1.0       0.5532229882454663  0.4207133984259874  0.28116435934741596          1.0000   
         C         C         1.0       0.5722145236418078  0.4066038401460344  0.3144544305889596 1.0000   
         H         H         1.0       0.5368796615588045  0.3487840445554265  0.323433762954776  1.0000   
         H         H         1.0       0.5044362025783954  0.37184924164703304           0.27672114297517353          1.0000   
         H         H         1.0       0.558570717612746   0.4394726812802024  0.2652374465673212 1.0000   
         H         H         1.0       0.5900696282005212  0.41776650049205677           0.32717650741238435          1.0000   
         C         C         1.0       0.5019901768038928  0.4609808115645733  0.31941111890020824          1.0000   
         C         C         1.0       0.4917547997235824  0.4371467532419103  0.2980357971391225 1.0000   
         C         C         1.0       0.47453688116736337           0.42264920343653783          0.3310718735363903 1.0000   
         C         C         1.0       0.4682064170889595  0.4312616572163096  0.3815451407131982 1.0000   
         C         C         1.0       0.4816259041956224  0.4533196582659207  0.40420304895179165          1.0000   
         C         C         1.0       0.4980627293474378  0.4677872372494704  0.3728821473543639 1.0000   
         C         C         1.0       0.5020846777608229  0.42585332868293785           0.2434104343047667 1.0000   
         C         C         1.0       0.47956424063806885           0.40957262543039247          0.21068092352575846          1.0000   
         C         C         1.0       0.4861028081144162  0.38807876070630515           0.17681482190615844          1.0000   
         C         C         1.0       0.46575527476202083           0.3748244507250231 0.14749272668438582          1.0000   
         C         C         1.0       0.4395447215853351  0.3798471224748931  0.1570641837133181 1.0000   
         C         C         1.0       0.43211655971059865           0.40066355130047304          0.1903331672155161 1.0000   
         C         C         1.0       0.45178732364210805           0.41641270135659475          0.21612470108697956          1.0000   
         C         C         1.0       0.4995611082611672  0.47133518145318476           0.19479785631959784          1.0000   
         C         C         1.0       0.5095111711321216  0.49057764812012383           0.1590481544225742 1.0000   
         C         C         1.0       0.5286316131421211  0.4850431330773105  0.12043926694634857          1.0000   
         C         C         1.0       0.5407651498985102  0.45939079345140604           0.12722480366124742          1.0000   
         C         C         1.0       0.5333951154662878  0.4403560827518488  0.1653897104470306 1.0000   
         C         C         1.0       0.5125286953231836  0.4469423562739724  0.20085183385211056          1.0000   
         C         C         1.0       0.5321428753036469  0.50379609184095    0.06834316623572922          1.0000   
         C         C         1.0       0.5313783805582063  0.5912680828139673  0.0881521033376993 1.0000   
         C         C         1.0       0.5176576887223315  0.5805925890343984  0.046593474712850025         1.0000   
         C         C         1.0       0.5161682748922408  0.5537130232121265  0.0382369789477941 1.0000   
         C         C         1.0       0.5277769364318018  0.5362368815378206  0.0752018431391075 1.0000   
         C         C         1.0       0.541417328932525   0.5477044124033539  0.11777921957207194          1.0000   
         C         C         1.0       0.5422196469422016  0.5745139112689841  0.1267562415412862 1.0000   
         C         C         1.0       0.5127061275114395  0.4882262090297111  0.030100927547773937         1.0000   
         C         C         1.0       0.5205619565692926  0.4656876969680838  0.002279200682573368         1.0000   
         C         C         1.0       0.5018616746580564  0.44936913636453724           0.9783235414346545 1.0000   
         C         C         1.0       0.4741949327675851  0.4539395560868979  0.9882657605349451 1.0000   
         C         C         1.0       0.4658733536108708  0.4780378227593851  0.009358151919318658         1.0000   
         C         C         1.0       0.4853003335206674  0.49531357022672556           0.029998782098730414         1.0000   
         C         C         1.0       0.5655750038925048  0.510912150817393   0.9887682140912444 1.0000   
         C         C         1.0       0.5899743241857984  0.5199820661081126  0.9716581001486667 1.0000   
         C         C         1.0       0.6128315553020192  0.5174568301671701  0.006215146921352499         1.0000   
         C         C         1.0       0.6097874962802952  0.5072998931557613  0.057713610284503725         1.0000   
         C         C         1.0       0.5846206644584241  0.5057908287502859  0.07696718217365373          1.0000   
         C         C         1.0       0.5617191124024802  0.5068522760011364  0.04342493734152497          1.0000   
         H         H         1.0       0.5170047276129521  0.4712400181338233  0.2968792684560592 1.0000   
         H         H         1.0       0.46689386074920447           0.40151879259465817          0.3208102755571274 1.0000   
         H         H         1.0       0.4528398147426684  0.42007736711750343           0.40411743546271134          1.0000   
         H         H         1.0       0.5096167458765364  0.484700357298554   0.3900784317390217 1.0000   
         H         H         1.0       0.507522624484429   0.3831746332780588  0.17228025164360916          1.0000   
         H         H         1.0       0.46867945318637233           0.3572000018500744 0.12122374341851387          1.0000   
         H         H         1.0       0.4117468000578438  0.4085016821883029  0.19372244908268296          1.0000   
         H         H         1.0       0.4461501663960727  0.4332481519906479  0.24253922704228606          1.0000   
         H         H         1.0       0.4807258972896405  0.4746533227804295  0.21604708291082375          1.0000   
         H         H         1.0       0.49783927116179    0.5095436155372126  0.1588058637140513 1.0000   
         H         H         1.0       0.5534274832911776  0.45146729464141483           0.0943181994912381 1.0000   
         H         H         1.0       0.5469657350002991  0.42219408966472244           0.16942366497715294          1.0000   
         H         H         1.0       0.5075425555198101  0.5924565468633041  0.016724363995446634         1.0000   
         H         H         1.0       0.5086841636281081  0.543696725855784   0.0033704361097450786        1.0000   
         H         H         1.0       0.5544417725698755  0.5375567196800722  0.1423311535778339 1.0000   
         H         H         1.0       0.5545887306162078  0.5830541639272572  0.15910218965768408          1.0000   
         H         H         1.0       0.5401031180732869  0.46013121396583184           0.0008206077720822602        1.0000   
         H         H         1.0       0.5088401986037963  0.4318148959951766  0.9584062495243321 1.0000   
         H         H         1.0       0.4445363878541841  0.48322225760017823           0.010322254691522925         1.0000   
         H         H         1.0       0.4796919352456356  0.5126745575768383  0.056127322982945316         1.0000   
         H         H         1.0       0.5480466212669801  0.5118386570029206  0.9613741279290252 1.0000   
         H         H         1.0       0.591084365314741   0.5264299147096022  0.9295750123287191 1.0000   
         H         H         1.0       0.6266427994784038  0.5017406553173513  0.08407048283875485          1.0000   
         H         H         1.0       0.5804592687853861  0.499824932697333   0.11892539196982536          1.0000   
         C         C         1.0       0.32767737590378343           0.04225995971135488          0.8325461007487092 1.0000   
         C         C         1.0       0.32920790328110683           0.023575212811415724         0.8696383340449051 1.0000   
         C         C         1.0       0.31004120102894045           0.021445309556975545         0.9100108006713509 1.0000   
         C         C         1.0       0.29055909972606847           0.041250416131239476         0.9163208815830834 1.0000   
         C         C         1.0       0.2874847199413326  0.059347696815358786         0.8736270280452829 1.0000   
         C         C         1.0       0.30569907424209924           0.060763724893492466         0.8323181757647072 1.0000   
         H         H         1.0       0.34496859643883027           0.007639475925434347         0.8709491017061927 1.0000   
         H         H         1.0       0.31229866303673737           0.005642227214285089         0.9419655009260196 1.0000   
         H         H         1.0       0.26957177412556893           0.07404585455778245          0.8704767455435503 1.0000   
         H         H         1.0       0.3030302985816882  0.07548942102042244           0.8003982235830222 1.0000   
         C         C         1.0       0.2735213837882218  0.08842542606426207           0.9879609413122814 1.0000   
         C         C         1.0       0.2555808055181793  0.06700389006467278           0.9786114674365275 1.0000   
         C         C         1.0       0.22942020474483976           0.06931598754927548          0.9961453199359103 1.0000   
         C         C         1.0       0.22011454693153426           0.09282310162491592          0.020537610255546568         1.0000   
         C         C         1.0       0.23864899918374546           0.11318651462407514          0.03174995706880246          1.0000   
         C         C         1.0       0.2656215138590396  0.11014774437038577           0.014569911684850556         1.0000   
         C         C         1.0       0.2662301432166537  0.03783842936885273           0.9588841146436201 1.0000   
         C         C         1.0       0.2736470045759033  0.023093729476547198         0.014506478774062082         1.0000   
         C         C         1.0       0.25368791027120463           0.00812436132927341          0.03811356260114662          1.0000   
         C         C         1.0       0.25831127950432825           0.9879134328553943 0.07449088352350008          1.0000   
         C         C         1.0       0.2844227678502406  0.9850353913738493  0.09464629952171366          1.0000   
         C         C         1.0       0.3045277618570807  0.0011864019286116356        0.07562058716894571          1.0000   
         C         C         1.0       0.2987240337918246  0.02157055114224815           0.038870664252667275         1.0000   
         C         C         1.0       0.22593215823799456           0.032593310922080176         0.8926812141914371 1.0000   
         C         C         1.0       0.20967154142898162           0.017407905065920604         0.8580669004921918 1.0000   
         C         C         1.0       0.20995323206737782           0.989624415328753  0.8570664788891041 1.0000   
         C         C         1.0       0.2299467302046928  0.978077202992843   0.8901700086545559 1.0000   
         C         C         1.0       0.2479629264914219  0.9918895976744476  0.9197535846118667 1.0000   
         C         C         1.0       0.2455299297207074  0.01989342627370938           0.9239964955891734 1.0000   
         C         C         1.0       0.19122738519672478           0.9698438191514793 0.8218806542218936 1.0000   
         C         C         1.0       0.136579884138723   0.9391412998537961  0.9430145594125316 1.0000   
         C         C         1.0       0.13227755745571743           0.9648940438415623 0.9224522827946632 1.0000   
         C         C         1.0       0.1517345070595223  0.9749095101255152  0.8889514766006177 1.0000   
         C         C         1.0       0.17288084559573397           0.9589718807664689 0.8703692722528115 1.0000   
         C         C         1.0       0.17721479929772171           0.9333715074166044 0.8950711244509523 1.0000   
         C         C         1.0       0.1582147433412833  0.9235950987894518  0.9296021617534668 1.0000   
         C         C         1.0       0.20976866374264092           0.9472091021399849 0.7934349593835243 1.0000   
         C         C         1.0       0.23564225945300324           0.9544781711914034 0.772528542409061  1.0000   
         C         C         1.0       0.2474323884813761  0.9385601155493084  0.7344326639001106 1.0000   
         C         C         1.0       0.23698226667248476           0.9143833642885449 0.721538790312143  1.0000   
         C         C         1.0       0.21127102879537166           0.9072734517790778 0.73759290065105   1.0000   
         C         C         1.0       0.19748704922214788           0.9234952773634498 0.7722742430217117 1.0000   
         C         C         1.0       0.14721227574881318           0.9715792879991102 0.7599025041745546 1.0000   
         C         C         1.0       0.1382493096658208  0.9717182577947208  0.7084291020008984 1.0000   
         C         C         1.0       0.1558422705784183  0.9806619997458446  0.6686540344748059 1.0000   
         C         C         1.0       0.1763439416587626  0.9982474203352231  0.6857492924992147 1.0000   
         C         C         1.0       0.18618263431674892           0.9984252167612122 0.7364935925197473 1.0000   
         C         C         1.0       0.17327024146614556           0.9829817938407893 0.7738626348255968 1.0000   
         H         H         1.0       0.29372585122264244           0.08621399068925295          0.9742895864605918 1.0000   
         H         H         1.0       0.2134121992017615  0.053930715676801855         0.994232421227823  1.0000   
         H         H         1.0       0.198987276233659   0.09335059557770209           0.03340234328102043          1.0000   
         H         H         1.0       0.2804097961468848  0.12827106670498134           0.015188901814835898         1.0000   
         H         H         1.0       0.2329813675687118  0.00936858354787784           0.02410642856638634          1.0000   
         H         H         1.0       0.24255757952882076           0.9739526381227875 0.083217134576542  1.0000   
         H         H         1.0       0.32642534346050334           0.9959351131159736 0.08476359839858438          1.0000   
         H         H         1.0       0.315970821833462   0.03322488770621401           0.02325310848333917          1.0000   
         H         H         1.0       0.22397924312339015           0.05497421904433941          0.8889235880585084 1.0000   
         H         H         1.0       0.19578690009004274           0.029576088979131887         0.8311370318814211 1.0000   
         H         H         1.0       0.23150254541249116           0.9572684830329682 0.8942619154504053 1.0000   
         H         H         1.0       0.2660591384679679  0.9809664749724005  0.9355396566933325 1.0000   
         H         H         1.0       0.1179948642831166  0.9797221868074254  0.9337216768511526 1.0000   
         H         H         1.0       0.14606335788762895           0.9947916718116383 0.8721245417272246 1.0000   
         H         H         1.0       0.1937752864081078  0.9201102545690284  0.8833976917780475 1.0000   
         H         H         1.0       0.16104984102085476           0.9031395625900669 0.9473776710151357 1.0000   
         H         H         1.0       0.24505016373619237           0.9727768923882595 0.7867317179211081 1.0000   
         H         H         1.0       0.2661633465660126  0.946251424366854   0.7214015129219739 1.0000   
         H         H         1.0       0.20250997470075818           0.8882997928090774 0.7265081945003219 1.0000   
         H         H         1.0       0.1776867059463834  0.9176537278973352  0.780993831557022  1.0000   
         H         H         1.0       0.1370969309545459  0.9583212713177276  0.7880788731433871 1.0000   
         H         H         1.0       0.11918438229921356           0.9598284155990907 0.7021555223215484 1.0000   
         H         H         1.0       0.18733320611426618           0.007853869877105568         0.6539451794293971 1.0000   
         H         H         1.0       0.2051676140546853  0.00803872800738703           0.7429198055220867 1.0000   
         C         C         1.0       0.47508553926682856           0.8888719810907294 0.09837442120927076          1.0000   
         C         C         1.0       0.4503433250788394  0.895364226867577   0.12001141782633651          1.0000   
         C         C         1.0       0.42904083057080294           0.9003897932445892 0.08878882690685197          1.0000   
         C         C         1.0       0.43227976631413706           0.8989728979218513 0.032459349042034624         1.0000   
         C         C         1.0       0.45737378915595056           0.88880906890515   0.010331538666081386         1.0000   
         C         C         1.0       0.4788584630731023  0.8855926615544029  0.04332381616353698          1.0000   
         H         H         1.0       0.4488154090620089  0.8946176682397547  0.1637256018902553 1.0000   
         H         H         1.0       0.41056584794303874           0.9075972231890436 0.10897836032589092          1.0000   
         H         H         1.0       0.4589813780622302  0.8881168992831523  0.9685252363811994 1.0000   
         H         H         1.0       0.4985475017315687  0.8795743283179857  0.028932785104740955         1.0000   
         C         C         1.0       0.41947141398645343           0.9570436117910498 0.009173608868733973         1.0000   
         C         C         1.0       0.39905933280257694           0.9371573465433082 0.0045998711235468726        1.0000   
         C         C         1.0       0.37128644662605786           0.9480852986506781 0.0014327349716871662        1.0000   
         C         C         1.0       0.3655614129811989  0.9758844035297511  0.9997229198647508 1.0000   
         C         C         1.0       0.3870043867360018  0.9942389587499129  0.9959581652999376 1.0000   
         C         C         1.0       0.41349819241062813           0.9848517764052614 0.003310649311370817         1.0000   
         C         C         1.0       0.4078035269780441  0.906830343281809   0.9964725589437881 1.0000   
         C         C         1.0       0.38881902398245466           0.8832824268233043 0.014313489361928555         1.0000   
         C         C         1.0       0.39345781643632405           0.8565086833536091 0.9959600664748643 1.0000   
         C         C         1.0       0.3823372995294662  0.8336466056907802  0.017206271775412008         1.0000   
         C         C         1.0       0.3684109961992999  0.836326202794445   0.06437090948866953          1.0000   
         C         C         1.0       0.3621440375174477  0.8627287554069852  0.08279358143601634          1.0000   
         C         C         1.0       0.36985049867442926           0.8862397502956353 0.054958850435165685         1.0000   
         C         C         1.0       0.4323773789329361  0.9223745620654423  0.9033750162469218 1.0000   
         C         C         1.0       0.4310765801962938  0.9255423348113776  0.849278688694629  1.0000   
         C         C         1.0       0.4098219550329822  0.915622149408875   0.8191685731849531 1.0000   
         C         C         1.0       0.38805156193142504           0.9039782388314055 0.8456616641040461 1.0000   
         C         C         1.0       0.38869456909864164           0.9003346412206225 0.8995442144355812 1.0000   
         C         C         1.0       0.4102681706724812  0.9102440023551193  0.9316552096026729 1.0000   
         C         C         1.0       0.40616457625069186           0.9164963774050331 0.7567227145507839 1.0000   
         C         C         1.0       0.357832643242605   0.9939796800141923  0.7546635199926695 1.0000   
         C         C         1.0       0.3859562529384912  0.9937633577709934  0.7629379165281903 1.0000   
         C         C         1.0       0.4006932999140932  0.9697191079082248  0.7611366483767606 1.0000   
         C         C         1.0       0.3875750822537882  0.9446665422366116  0.7536323503467792 1.0000   
         C         C         1.0       0.35958262004546915           0.944265878989017  0.7544987171245446 1.0000   
         C         C         1.0       0.34565531190796034           0.9693888627838355 0.7529539578077922 1.0000   
         C         C         1.0       0.3948304666736278  0.8881200671471473  0.7342194738494233 1.0000   
         C         C         1.0       0.405009653391931   0.8632211545345867  0.7526853994268347 1.0000   
         C         C         1.0       0.3948843673382288  0.8396271209132786  0.7319990976973735 1.0000   
         C         C         1.0       0.3762899145964388  0.8391708206277533  0.6920653031736085 1.0000   
         C         C         1.0       0.36717809188618555           0.864162949264739  0.6729287795341284 1.0000   
         C         C         1.0       0.37734531687260914           0.8884080044989336 0.6911528083593481 1.0000   
         C         C         1.0       0.42713650530195335           0.9327455512860114 0.6669414171828839 1.0000   
         C         C         1.0       0.44890288581087856           0.9419296874659866 0.6363275353132685 1.0000   
         C         C         1.0       0.4753722456454185  0.9397894590822076  0.6534150061785837 1.0000   
         C         C         1.0       0.48023292407662493           0.9255028294418524 0.7012715439922912 1.0000   
         C         C         1.0       0.45902171366580835           0.9165729107215325 0.7333223748949953 1.0000   
         C         C         1.0       0.4315248672681206  0.9219566309349342  0.7192094075302045 1.0000   
         H         H         1.0       0.43975774315934024           0.9509453536684956 0.01476909741332011          1.0000   
         H         H         1.0       0.35695235527099756           0.9337279523465265 0.9890941046807868 1.0000   
         H         H         1.0       0.34505976860944865           0.984245669517672  0.9940082960478471 1.0000   
         H         H         1.0       0.4284518991894865  0.999910408428403   0.00551649740271265          1.0000   
         H         H         1.0       0.4073711991497303  0.8540157889015396  0.9661826824591176 1.0000   
         H         H         1.0       0.3872087552327659  0.8147111608945007  0.0011988897209260774        1.0000   
         H         H         1.0       0.3512011823985619  0.8661118686913998  0.12031037046031468          1.0000   
         H         H         1.0       0.36531256206461676           0.9068006731855087 0.0683512816480587 1.0000   
         H         H         1.0       0.4473935512585638  0.9318841919397737  0.9278606822150886 1.0000   
         H         H         1.0       0.4470948737839703  0.9355373320825695  0.8277899438149177 1.0000   
         H         H         1.0       0.3682710091033423  0.8983877649754992  0.8245989681117397 1.0000   
         H         H         1.0       0.3695883741657931  0.8952280542441137  0.9189681478825967 1.0000   
         H         H         1.0       0.39724912733123424           0.012206133201745795         0.7729684420565608 1.0000   
         H         H         1.0       0.42185544089088356           0.9725831017045349 0.7683911184100045 1.0000   
         H         H         1.0       0.3498877609975095  0.9244458181052363  0.747134172212447  1.0000   
         H         H         1.0       0.32438756672236074           0.9699860406752434 0.7441504794574914 1.0000   
         H         H         1.0       0.41983325502382973           0.8628917687011267 0.7847242601485047 1.0000   
         H         H         1.0       0.40208167129099615           0.8220754369276534 0.746816319240492  1.0000   
         H         H         1.0       0.3537870282216958  0.8649908630277691  0.6392198271484767 1.0000   
         H         H         1.0       0.3722149271820328  0.9066960308125025  0.6683275181448758 1.0000   
         H         H         1.0       0.4064432542310499  0.9397487640482758  0.6570855878361668 1.0000   
         H         H         1.0       0.442330303074894   0.9507977370320166  0.5972529023933374 1.0000   
         H         H         1.0       0.5007086507575378  0.9197156942045284  0.7186789905626437 1.0000   
         H         H         1.0       0.46440021194849557           0.902918628983163  0.7669113409851817 1.0000   
         C         C         1.0       0.0637096790016594  0.1211089569805641  0.24268549333852574          1.0000   
         C         C         1.0       0.05588307331354848           0.1123403424142253 0.1936815104526427 1.0000   
         C         C         1.0       0.0744426510847376  0.09902204929666691           0.1616979694304584 1.0000   
         C         C         1.0       0.10114361910062648           0.0977913002500348 0.1792332651903964 1.0000   
         C         C         1.0       0.10939317298034945           0.11008715216437293          0.22825081238435946          1.0000   
         C         C         1.0       0.09053207867024042           0.12056170995018854          0.2602655935346001 1.0000   
         H         H         1.0       0.03401235267791461           0.11168705956871539          0.1827351052873743 1.0000   
         H         H         1.0       0.06777253869889648           0.09149697125631095          0.12329912012707589          1.0000   
         H         H         1.0       0.1300457489283629  0.11017769797846011           0.24143161855804107          1.0000   
         H         H         1.0       0.09699948813721491           0.13242768373105013          0.29277293323744463          1.0000   
         C         C         1.0       0.1540698196357942  0.12388414069793519           0.13520723374196852          1.0000   
         C         C         1.0       0.1530107380876103  0.09673093159431656           0.14910304956524745          1.0000   
         C         C         1.0       0.178184004474618   0.08310074280747659           0.15849562265925976          1.0000   
         C         C         1.0       0.2009561353488086  0.09638155102393231           0.14670027653399198          1.0000   
         C         C         1.0       0.20124411373670692           0.12292110795333544          0.1296766643821632 1.0000   
         C         C         1.0       0.17661975180419862           0.13618866393781692          0.12193021257204073          1.0000   
         C         C         1.0       0.12498092067670286           0.08113890787847722          0.14561792740134138          1.0000   
         C         C         1.0       0.12277848459118042           0.0803665490588672 0.08142946908759674          1.0000   
         C         C         1.0       0.13869598013095188           0.062464712175847925         0.05042356040588736          1.0000   
         C         C         1.0       0.13775373258960205           0.061807006936945186         0.9962628193890498 1.0000   
         C         C         1.0       0.12229583855903414           0.08058932435535038          0.9690424406061084 1.0000   
         C         C         1.0       0.10779244262903555           0.10054590417304077          0.9967217148570032 1.0000   
         C         C         1.0       0.10772311264137337           0.09998457415620865          0.05201503157971277          1.0000   
         C         C         1.0       0.1350533050531722  0.045164633576414426         0.22321498974302756          1.0000   
         C         C         1.0       0.13065858808380745           0.020269513048246424         0.2457724800652626 1.0000   
         C         C         1.0       0.1127719199755068  0.001186058434793802         0.22307109498962366          1.0000   
         C         C         1.0       0.10370039113148356           0.007284048613396932         0.171013880025389  1.0000   
         C         C         1.0       0.10755873119664908           0.031596800337247766         0.14776953870280585          1.0000   
         C         C         1.0       0.12327657075266768           0.05212603139559557          0.171890569164744  1.0000   
         C         C         1.0       0.1014696299103212  0.9754517224699434  0.25565203457813335          1.0000   
         C         C         1.0       0.0929587145490376  0.8983953531979567  0.16487907208112254          1.0000   
         C         C         1.0       0.1093945502693523  0.9188273267133792  0.14470565609340016          1.0000   
         C         C         1.0       0.11168194664300433           0.9426690242474767 0.17484140977539817          1.0000   
         C         C         1.0       0.09495638556900941           0.9495069577161114 0.2180218758126483 1.0000   
         C         C         1.0       0.07620900291330202           0.9300914408938938 0.23149870968903608          1.0000   
         C         C         1.0       0.07588271870468642           0.9054909333594767 0.2073154066433512 1.0000   
         C         C         1.0       0.07371586425687665           0.9885299771596645 0.28346095768347584          1.0000   
         C         C         1.0       0.06170743723084371           0.014193102754194387         0.27011233468272805          1.0000   
         C         C         1.0       0.04181648702509955           0.02567631682477689          0.3025516311615818 1.0000   
         C         C         1.0       0.03457186649907335           0.01280565829839575          0.34920029731051455          1.0000   
         C         C         1.0       0.04497956353730716           0.9869007781258732 0.36032508471191743          1.0000   
         C         C         1.0       0.061969495841174706          0.9741979269237123 0.32514004194195784          1.0000   
         C         C         1.0       0.1407871406908368  0.9426734967318022  0.29312416532079366          1.0000   
         C         C         1.0       0.15096850158218045           0.9269675500571724 0.33471633333841333          1.0000   
         C         C         1.0       0.1482285904185996  0.9368288642262669  0.3859606987625526 1.0000   
         C         C         1.0       0.1358518104698434  0.9611517631373834  0.3937780594366865 1.0000   
         C         C         1.0       0.12430642310830167           0.9757834589957022 0.3528287130066241 1.0000   
         C         C         1.0       0.12319322950353492           0.9648114790892627 0.30245899717628344          1.0000   
         H         H         1.0       0.13666819136889297           0.13523291268616133          0.12758561018463932          1.0000   
         H         H         1.0       0.17875875048100934           0.06263547514491541          0.1712480139919732 1.0000   
         H         H         1.0       0.22003641224525228           0.08421586004275827          0.14637531258783465          1.0000   
         H         H         1.0       0.1745515922764074  0.15660460691879452           0.10745543893327048          1.0000   
         H         H         1.0       0.15270135667780696           0.04963938196795459          0.07029136799572488          1.0000   
         H         H         1.0       0.14634563026380967           0.04586038515197055          0.9721522505453902 1.0000   
         H         H         1.0       0.09815595373180035           0.11724392630118219          0.9755314677239385 1.0000   
         H         H         1.0       0.09391914222735218           0.11520770963378468          0.0700530971259068 1.0000   
         H         H         1.0       0.14804442364062512           0.058445401795652385         0.2439041484897269 1.0000   
         H         H         1.0       0.13974981542630607           0.017181707029117144         0.28435836012496796          1.0000   
         H         H         1.0       0.09119773212429413           0.9936180641713949 0.14794246193738536          1.0000   
         H         H         1.0       0.098306103359159   0.03598180549506025           0.11049419773788847          1.0000   
         H         H         1.0       0.12287936161014898           0.9135493698998924 0.11410613739181068          1.0000   
         H         H         1.0       0.1269910849138297  0.956749225059442   0.16064123693802426          1.0000   
         H         H         1.0       0.06430376605378217           0.9312315006947739 0.26859128193798865          1.0000   
         H         H         1.0       0.06591874743372732           0.8890627271592935 0.2291159290644135 1.0000   
         H         H         1.0       0.06960460514050883           0.028652919957756318         0.24101672275013467          1.0000   
         H         H         1.0       0.036790923317332545          0.04732983474422059          0.30074772983646597          1.0000   
         H         H         1.0       0.03531622681106538           0.9777248233546965 0.39508820658059407          1.0000   
         H         H         1.0       0.06513809920989577           0.9536324106714763 0.3313569228570025 1.0000   
         H         H         1.0       0.14322068688171033           0.9341649423460651 0.2552541972176713 1.0000   
         H         H         1.0       0.1604771980177013  0.9071178811903164  0.3253835653348408 1.0000   
         H         H         1.0       0.13613049955687476           0.9701909432194883 0.43277504281491097          1.0000   
         H         H         1.0       0.11308405266248524           0.9949820026409802 0.3620758271008336 1.0000   
         C         C         1.0       0.1105804598668946  0.32910374393631014           0.9208853161212888 1.0000   
         C         C         1.0       0.10807268267084424           0.30858382107889104          0.8822021646491329 1.0000   
         C         C         1.0       0.09797136741397106           0.2846422847680913 0.8996795147338849 1.0000   
         C         C         1.0       0.09014164687778115           0.27984982458617647          0.9522827827192075 1.0000   
         C         C         1.0       0.08869146075503896           0.30269826295791974          0.986574118331281  1.0000   
         C         C         1.0       0.10065098055367028           0.326561069808881  0.9723881273540226 1.0000   
         H         H         1.0       0.11529416988093533           0.31035487290618186          0.8403509264206357 1.0000   
         H         H         1.0       0.09940796300897148           0.26995547186934243          0.8687594687907136 1.0000   
         H         H         1.0       0.08297927826661008           0.302072111956537  0.026030370843491468         1.0000   
         H         H         1.0       0.09701582170679991           0.3446452800608869 0.00022056788189872556       1.0000   
         C         C         1.0       0.10447531977728465           0.2168916708345763 0.9087141012847917 1.0000   
         C         C         1.0       0.08126962364409707           0.22462933364153917          0.9348695783434003 1.0000   
         C         C         1.0       0.058297836840606646          0.20844515451780432          0.9244070741202447 1.0000   
         C         C         1.0       0.05889886099095594           0.18332783005598177          0.8956297797953752 1.0000   
         C         C         1.0       0.08417210779217069           0.17575070994548583          0.8779904068447479 1.0000   
         C         C         1.0       0.10666515492530354           0.19199044855877873          0.8843413820107787 1.0000   
         C         C         1.0       0.07780013420858123           0.2519586816613596 0.9716354146728079 1.0000   
         C         C         1.0       0.04632824446963535           0.25988603315775166          0.9784165311849145 1.0000   
         C         C         1.0       0.03507933649981099           0.2599318657911064 0.02881015311674262          1.0000   
         C         C         1.0       0.010576611501935895          0.27123051083012517          0.041507826204638665         1.0000   
         C         C         1.0       0.9942906692901844  0.2822801556754043  0.0014011609282973403        1.0000   
         C         C         1.0       0.00354929899432177           0.28013673736321637          0.9477601486317143 1.0000   
         C         C         1.0       0.028518169225964396          0.2686327680695541 0.9367760419983768 1.0000   
         C         C         1.0       0.08448458950032217           0.21755269075305617          0.04933936741627587          1.0000   
         C         C         1.0       0.09495812752982327           0.20939111140689884          0.09874808307916555          1.0000   
         C         C         1.0       0.11428421859035943           0.22476383621243748          0.12430312593865521          1.0000   
         C         C         1.0       0.12939240773114924           0.24199763274583697          0.09147487522929043          1.0000   
         C         C         1.0       0.1192494665558117  0.24974917525790036           0.04199471216320627          1.0000   
         C         C         1.0       0.09424836071348941           0.23972432951400768          0.02274452597786336          1.0000   
         C         C         1.0       0.11518574034263285           0.22981675732867107          0.18881998046627751          1.0000   
         C         C         1.0       0.06185354141196538           0.18177058754761127          0.2930234622113684 1.0000   
         C         C         1.0       0.08837584118780656           0.1889639402212925 0.30997514564164313          1.0000   
         C         C         1.0       0.10335033966804813           0.2063264456129092 0.2796528503548644 1.0000   
         C         C         1.0       0.09573591356410603           0.21360558192364557          0.22797697127063307          1.0000   
         C         C         1.0       0.06969881553517936           0.20810880944813254          0.21397519907500806          1.0000   
         C         C         1.0       0.05299970090795074           0.19289530996804038          0.24350644216333378          1.0000   
         C         C         1.0       0.10694658425583015           0.261593956020307  0.20029573703075412          1.0000   
         C         C         1.0       0.11536557809420267           0.2769513464052712 0.2445278947348587 1.0000   
         C         C         1.0       0.1039523932698827  0.3024022018071203  0.25587066698451405          1.0000   
         C         C         1.0       0.0822629101310064  0.31157461195578423           0.2241082445895084 1.0000   
         C         C         1.0       0.07391639371669845           0.2965938518088129 0.18035959448050598          1.0000   
         C         C         1.0       0.0848918616745129  0.2719591595041777  0.16866918129359998          1.0000   
         C         C         1.0       0.1670919435233374  0.2392641906191455  0.19982256289172373          1.0000   
         C         C         1.0       0.19245348660564582           0.2304452801313734 0.21283453720611525          1.0000   
         C         C         1.0       0.19708604871482538           0.2033311361798162 0.22796460150021883          1.0000   
         C         C         1.0       0.17745482055422473           0.18534044033987454          0.2179557331292492 1.0000   
         C         C         1.0       0.1515209132466411  0.19450583551920092           0.20213829390461258          1.0000   
         C         C         1.0       0.14529156735990228           0.2206997642685628 0.19871361256199374          1.0000   
         H         H         1.0       0.12451962008865536           0.2240444816756009 0.9189965331393366 1.0000   
         H         H         1.0       0.037318438793960906          0.21338799707523415          0.9350050088002562 1.0000   
         H         H         1.0       0.03888420481380659           0.17241784814728991          0.8927363173717228 1.0000   
         H         H         1.0       0.12506244490224308           0.18580999975435686          0.8641358116331169 1.0000   
         H         H         1.0       0.04484239909771959           0.25182574972282423          0.06255263520992815          1.0000   
         H         H         1.0       0.0006487193976252303         0.26919893537203027          0.079830032974751  1.0000   
         H         H         1.0       0.9890103013612974  0.2874157806913216  0.9169825664016424 1.0000   
         H         H         1.0       0.03679981141293087           0.26930008892838436          0.8963981904876258 1.0000   
         H         H         1.0       0.0679213415861003  0.20517941711855336           0.03298591622484359          1.0000   
         H         H         1.0       0.08661410445803734           0.19252718361207133          0.11936212848749111          1.0000   
         H         H         1.0       0.14673723386289672           0.2546632641790311 0.1079127872848337 1.0000   
         H         H         1.0       0.12916023187787617           0.26575362521724644          0.021243864021009307         1.0000   
         H         H         1.0       0.09664161907500457           0.1827878093772787 0.34724768027968994          1.0000   
         H         H         1.0       0.12324604088551022           0.21189057109046996          0.29534999632859377          1.0000   
         H         H         1.0       0.061853634262198254          0.21659970266164974          0.1769775311901789 1.0000   
         H         H         1.0       0.03374457257380743           0.18618725010672335          0.22799239372805788          1.0000   
         H         H         1.0       0.13037548100544316           0.26825446505236006          0.2704034917449418 1.0000   
         H         H         1.0       0.11389961005346261           0.3125046706694216 0.2882599919285021 1.0000   
         H         H         1.0       0.05643941952280174           0.3054516603550118 0.15516228948218724          1.0000   
         H         H         1.0       0.0760704002566881  0.2622964127406993  0.13336714338546943          1.0000   
         H         H         1.0       0.16498499756003004           0.26043923665276053          0.188422474581914  1.0000   
         H         H         1.0       0.20843246157936166           0.24566931645743514          0.2159919065727099 1.0000   
         H         H         1.0       0.17803012273423524           0.16345116776935067          0.22881409231364178          1.0000   
         H         H         1.0       0.13492349013663232           0.17940046812004215          0.20506969016802276          1.0000   
         C         C         1.0       0.5343667894722423  0.8867903321561843  0.6205362920664245 1.0000   
         C         C         1.0       0.512816680384314   0.872993424846846   0.6417218317786878 1.0000   
         C         C         1.0       0.49674353335963384           0.8557840286568653 0.6113309662737195 1.0000   
         C         C         1.0       0.5069145955292192  0.8471158263846     0.5642347693784654 1.0000   
         C         C         1.0       0.5268603200110098  0.8625637978191089  0.5391329289894543 1.0000   
         C         C         1.0       0.5399698441438602  0.8833012879059021  0.5673227031245794 1.0000   
         H         H         1.0       0.503340327627699   0.8786807078914765  0.6769699221317794 1.0000   
         H         H         1.0       0.47849474262751274           0.8460274393493232 0.6283466900049357 1.0000   
         H         H         1.0       0.5314320945999144  0.8587931044353991  0.4974579934726521 1.0000   
         H         H         1.0       0.5582216391708131  0.891488403872446   0.5517809313921846 1.0000   
         C         C         1.0       0.5406708527931962  0.8004147888921053  0.5192976089156033 1.0000   
         C         C         1.0       0.5144269314778772  0.8043946110922331  0.4999448646960392 1.0000   
         C         C         1.0       0.5071333920348735  0.7895198983150234  0.45364987210003793          1.0000   
         C         C         1.0       0.5250192219775414  0.7736917411451364  0.4261362948421189 1.0000   
         C         C         1.0       0.5504590141662123  0.7708808485915846  0.4464125788463856 1.0000   
         C         C         1.0       0.5589297259964225  0.7840121194088159  0.49386433202621993          1.0000   
         C         C         1.0       0.4928974539768354  0.820805036475387   0.5375805106217326 1.0000   
         C         C         1.0       0.4662386460361642  0.8323368380637731  0.5074988779805895 1.0000   
         C         C         1.0       0.44220019689722095           0.8339965078548195 0.5346393504590194 1.0000   
         C         C         1.0       0.4192117923545444  0.8413137591286397  0.5077671337666125 1.0000   
         C         C         1.0       0.4192445576809401  0.8467198513100451  0.4542834626293231 1.0000   
         C         C         1.0       0.4431023827151366  0.8453003241671082  0.4278976327333793 1.0000   
         C         C         1.0       0.4660060488218358  0.8409988124368993  0.45422218636731426          1.0000   
         C         C         1.0       0.4698059629804877  0.7751264051226436  0.5553060888917912 1.0000   
         C         C         1.0       0.46206417083891893           0.7535788068784659 0.5872748030057414 1.0000   
         C         C         1.0       0.4715436278860095  0.7515670825878848  0.6406528058704798 1.0000   
         C         C         1.0       0.4874401693345668  0.7717065240600014  0.66162150028878   1.0000   
         C         C         1.0       0.495202851461754   0.7934365650447687  0.6298577678091619 1.0000   
         C         C         1.0       0.48470616514310483           0.7969814760731995 0.5775323735750798 1.0000   
         C         C         1.0       0.4630216831351771  0.725675491709916   0.6755016024969269 1.0000   
         C         C         1.0       0.4834711998003477  0.6512255222917978  0.5848952268134281 1.0000   
         C         C         1.0       0.4998038697413057  0.6739738800436152  0.5799029709123688 1.0000   
         C         C         1.0       0.49180601783136685           0.6970939924886564 0.6067627433979376 1.0000   
         C         C         1.0       0.46858463532625816           0.6993443778991606 0.6396593169713731 1.0000   
         C         C         1.0       0.4523200793861725  0.6761432291738135  0.6415057609954715 1.0000   
         C         C         1.0       0.4605962969829619  0.6525648117945527  0.6190865643364822 1.0000   
         C         C         1.0       0.43340992050744903           0.7355148273821771 0.6899403979523739 1.0000   
         C         C         1.0       0.42871089131372786           0.7539225109847418 0.731665731753273  1.0000   
         C         C         1.0       0.4050350586147565  0.7671477067481048  0.7367951839705701 1.0000   
         C         C         1.0       0.38578830074056697           0.7648856590500382 0.6965218383265991 1.0000   
         C         C         1.0       0.3881760934688832  0.7453173560194641  0.6594026244820765 1.0000   
         C         C         1.0       0.41214320808333277           0.7312249535983897 0.654955867941019  1.0000   
         C         C         1.0       0.4675404394535203  0.6989944097687517  0.7599744177321899 1.0000   
         C         C         1.0       0.4802085875587781  0.6853152483292673  0.8001169133762231 1.0000   
         C         C         1.0       0.507458041741597   0.6901381516249517  0.811270917342991  1.0000   
         C         C         1.0       0.5217732782175185  0.7058859663121553  0.7759394137284268 1.0000   
         C         C         1.0       0.5087818194640156  0.7191054662583495  0.7344681793366581 1.0000   
         C         C         1.0       0.48093739644767075           0.7164546155374312 0.7263334632769514 1.0000   
         H         H         1.0       0.5474260718435513  0.8120625344404964  0.553572230424756  1.0000   
         H         H         1.0       0.48667491383099437           0.7896645814524423 0.44082404643237355          1.0000   
         H         H         1.0       0.5171516586722764  0.7619017599229403  0.39304070339941727          1.0000   
         H         H         1.0       0.5808412495309346  0.7841677635470163  0.5070360347541439 1.0000   
         H         H         1.0       0.4402751150839872  0.8303569174720338  0.5757753348767736 1.0000   
         H         H         1.0       0.4004493271993447  0.8446197005049336  0.5255809590471308 1.0000   
         H         H         1.0       0.4443028344759842  0.8488345534236155  0.38716241140153873          1.0000   
         H         H         1.0       0.48452841220235104           0.8421041915466437 0.43098916314654556          1.0000   
         H         H         1.0       0.46361881111096087           0.7768765120075259 0.5158536293303475 1.0000   
         H         H         1.0       0.4489908707044053  0.7403576227759017  0.5699470326118747 1.0000   
         H         H         1.0       0.49469390123813695           0.7685843310534498 0.7018623697233258 1.0000   
         H         H         1.0       0.510407293844328   0.8080660628288587  0.6462539148800629 1.0000   
         H         H         1.0       0.5196766990558065  0.6731418970343861  0.5596484168950477 1.0000   
         H         H         1.0       0.5049057601891723  0.714447011222653   0.606462156638331  1.0000   
         H         H         1.0       0.4346957810687589  0.6757368512047429  0.6622910466047589 1.0000   
         H         H         1.0       0.44812278932930955           0.6350846511618733 0.622218298807208  1.0000   
         H         H         1.0       0.44304288553188415           0.7571379430519496 0.765155351059328  1.0000   
         H         H         1.0       0.4012476892442627  0.7788093967736529  0.7722156229068974 1.0000   
         H         H         1.0       0.3731424778239209  0.7423137310444129  0.6270783148701133 1.0000   
         H         H         1.0       0.4128622627056877  0.7189496096557951  0.6212385996914974 1.0000   
         H         H         1.0       0.4456338486973217  0.6946704178516175  0.757279615117206  1.0000   
         H         H         1.0       0.4689885373174393  0.674538567640086   0.8299755677752688 1.0000   
         H         H         1.0       0.5446533668380067  0.7068565355295487  0.7771596169944432 1.0000   
         H         H         1.0       0.5210145834449575  0.7290930125827697  0.7053090340576458 1.0000   
         C         C         1.0       0.5316528881432376  0.5888727805439697  0.5826574837411    1.0000   
         C         C         1.0       0.5232185815750635  0.5682369218641524  0.5487708200391791 1.0000   
         C         C         1.0       0.5395905267155295  0.5461857936780642  0.5410557086432443 1.0000   
         C         C         1.0       0.5648327481919678  0.5435455334080862  0.5685255372939968 1.0000   
         C         C         1.0       0.5735285911408002  0.5665845200084643  0.5943077019291725 1.0000   
         C         C         1.0       0.5576750697292734  0.5894663144594586  0.602277175667964  1.0000   
         H         H         1.0       0.5041213863820768  0.5694859210048561  0.5277890592021502 1.0000   
         H         H         1.0       0.5326250152381049  0.5331738829751234  0.5087912922545393 1.0000   
         H         H         1.0       0.5934729962177986  0.5674709133074053  0.6157564432120399 1.0000   
         H         H         1.0       0.5644102112630895  0.6069760554054393  0.6254186764677526 1.0000   
         C         C         1.0       0.605478674547066   0.5323213115254898  0.47920905105156203          1.0000   
         C         C         1.0       0.6090777970829784  0.5247956891775125  0.5328237498065808 1.0000   
         C         C         1.0       0.633854364982637   0.5335388415978252  0.5570456656164675 1.0000   
         C         C         1.0       0.6524353022842726  0.5488564832468917  0.530105642141071  1.0000   
         C         C         1.0       0.6474204310220967  0.5541894015106873  0.4755131417057169 1.0000   
         C         C         1.0       0.6244774281619734  0.5461602030664465  0.451004897903596  1.0000   
         C         C         1.0       0.5837182281341207  0.5168098950231896  0.5684355021309592 1.0000   
         C         C         1.0       0.5647922562645887  0.49285767668724745           0.5503252086770934 1.0000   
         C         C         1.0       0.5648959731548413  0.4821331266085775  0.5006319746242589 1.0000   
         C         C         1.0       0.5452124826735923  0.4648545816474156  0.4834037268472386 1.0000   
         C         C         1.0       0.5240117460211242  0.4560077943453108  0.5166762158203997 1.0000   
         C         C         1.0       0.5244538011603801  0.4644733439861581  0.5690500359596523 1.0000   
         C         C         1.0       0.5439042741638115  0.4839019465326973  0.5854291358024986 1.0000   
         C         C         1.0       0.5916108610866969  0.5197719130451143  0.6745090622284098 1.0000   
         C         C         1.0       0.5915550194257679  0.5069928107166376  0.7227308296219268 1.0000   
         C         C         1.0       0.5939223954841343  0.4786425591754711  0.7255374118982321 1.0000   
         C         C         1.0       0.6011112456970431  0.46536254041627084           0.6795461664093927 1.0000   
         C         C         1.0       0.6034343605009245  0.47956694026776875           0.6311077327896842 1.0000   
         C         C         1.0       0.5940896456853325  0.5057665138084605  0.6267777627516214 1.0000   
         C         C         1.0       0.5871564470478162  0.46327421931397755           0.7823906596325515 1.0000   
         C         C         1.0       0.5910218077386227  0.3729316472941082  0.7798309610777214 1.0000   
         C         C         1.0       0.6099763553093913  0.3883268060330666  0.7547594013838556 1.0000   
         C         C         1.0       0.6093414224800436  0.41669977770640815           0.760490472488275  1.0000   
         C         C         1.0       0.5880204705417611  0.4306589274624863  0.778845916134894  1.0000   
         C         C         1.0       0.5683676490550883  0.414285890890486   0.8029068005703928 1.0000   
         C         C         1.0       0.5700495880573648  0.38642292232976416           0.8040290728009629 1.0000   
         C         C         1.0       0.5546857189417226  0.47290308618468757           0.7884642944333571 1.0000   
         C         C         1.0       0.5351533919906534  0.46658801354467366           0.7480631292857282 1.0000   
         C         C         1.0       0.5085854513829231  0.4750234812980162  0.7501925167876029 1.0000   
         C         C         1.0       0.5007271494937773  0.49018305134442036           0.7933654726522318 1.0000   
         C         C         1.0       0.5195753518342235  0.4985512637812896  0.8324532238388987 1.0000   
         C         C         1.0       0.5453377994744314  0.4893970345537997  0.8309560317282122 1.0000   
         C         C         1.0       0.6050144323848482  0.4576095740287567  0.8793413085313266 1.0000   
         C         C         1.0       0.6191150531218513  0.46576442809127816           0.9230931022547126 1.0000   
         C         C         1.0       0.6407068400769539  0.4824386853346807  0.9172290479871941 1.0000   
         C         C         1.0       0.6460942903641075  0.49371759084306016           0.8693994553714646 1.0000   
         C         C         1.0       0.6306047033703643  0.48641715836838445           0.82519366748351   1.0000   
         C         C         1.0       0.6087137611439447  0.4692094659184131  0.8297409122730572 1.0000   
         H         H         1.0       0.587185191896668   0.5298800115703861  0.45692846358560574          1.0000   
         H         H         1.0       0.6358317831820548  0.5322426929955327  0.6000597528911851 1.0000   
         H         H         1.0       0.6686804868257926  0.5576769757510586  0.5510887902507062 1.0000   
         H         H         1.0       0.6203544784041265  0.5523670177971902  0.40852812132044986          1.0000   
         H         H         1.0       0.580027340015854   0.4858473901196605  0.47308303686983944          1.0000   
         H         H         1.0       0.5440342073852796  0.45840754376361315           0.4422512449686838 1.0000   
         H         H         1.0       0.5065129128665561  0.4598841614988458  0.5941213922091492 1.0000   
         H         H         1.0       0.5433652135444537  0.48962521257994235           0.626636860131666  1.0000   
         H         H         1.0       0.5865006788165174  0.541682853889663   0.6770775745913128 1.0000   
         H         H         1.0       0.5907298764911677  0.5190645760644846  0.7598234697062268 1.0000   
         H         H         1.0       0.5994679756691053  0.44337122875783713           0.6743922757746662 1.0000   
         H         H         1.0       0.6075422505828983  0.4681005363289285  0.5950414992900906 1.0000   
         H         H         1.0       0.6262558902290533  0.37854040000548617           0.7383365375681066 1.0000   
         H         H         1.0       0.6261384037430836  0.42911783071944015           0.7561921139110082 1.0000   
         H         H         1.0       0.5524166672210575  0.4221899764188639  0.8230644119299132 1.0000   
         H         H         1.0       0.5555769371451753  0.37408488943157864           0.8258514386660608 1.0000   
         H         H         1.0       0.543312051439244   0.4534723704896436  0.7146117728631901 1.0000   
         H         H         1.0       0.49449839119873323           0.4673630179092972 0.7216564752153501 1.0000   
         H         H         1.0       0.5144513146050725  0.511969636062369   0.8658483694323353 1.0000   
         H         H         1.0       0.5584746944457165  0.49442706962177824           0.8627713735129473 1.0000   
         H         H         1.0       0.5882756831167699  0.44385533970936386           0.8864056416786512 1.0000   
         H         H         1.0       0.6130766787500997  0.45789449724073267           0.9634119697018303 1.0000   
         H         H         1.0       0.6577705250522866  0.5109591548834128  0.8645128165758482 1.0000   
         H         H         1.0       0.6346868118763416  0.4959460389417615  0.786309807922208  1.0000   
         C         C         1.0       0.16902282931396484           0.4155365969283142 0.3839854297527201 1.0000   
         C         C         1.0       0.16233900137026747           0.3892781678216426 0.3956624655813799 1.0000   
         C         C         1.0       0.13824139774527766           0.3846605763545447 0.4181306063060069 1.0000   
         C         C         1.0       0.12034675060875966           0.40535896360778045          0.4348102917410597 1.0000   
         C         C         1.0       0.12876236861115786           0.43240211569672865          0.42694718172583096          1.0000   
         C         C         1.0       0.1524475423630991  0.43616843050182896           0.4000348373296573 1.0000   
         H         H         1.0       0.17816257196729524           0.3742366300893211 0.3927366145402999 1.0000   
         H         H         1.0       0.1345739118678677  0.36428963153598265           0.42987427786315574          1.0000   
         H         H         1.0       0.11422034965614625           0.44943033642176183          0.43826198022999935          1.0000   
         H         H         1.0       0.15635884101617914           0.45775779013429546          0.3919344984878785 1.0000   
         C         C         1.0       0.11933524922450855           0.3744182506995588 0.5375436476014436 1.0000   
         C         C         1.0       0.10446554069637748           0.3974042443613931 0.5214528077390891 1.0000   
         C         C         1.0       0.10358154959282873           0.419016637728946  0.5563644463735882 1.0000   
         C         C         1.0       0.11636041073397974           0.4179567813010166 0.6057744542193563 1.0000   
         C         C         1.0       0.13096662113216784           0.394179788408044  0.6196490140230176 1.0000   
         C         C         1.0       0.1330658625604786  0.3735998806882701  0.585379703593353  1.0000   
         C         C         1.0       0.09205908148758013           0.3990262046248411 0.4660737389139844 1.0000   
         C         C         1.0       0.07743346711912968           0.37007282019399607          0.44878172979241565          1.0000   
         C         C         1.0       0.0775133667649408  0.36124893840883426           0.3939786818672558 1.0000   
         C         C         1.0       0.06874038137191585           0.3356668634743295 0.3807249543931842 1.0000   
         C         C         1.0       0.05989412782316195           0.3187301069133672 0.42036518149387037          1.0000   
         C         C         1.0       0.05743283244652453           0.32770942056771885          0.4726079617140868 1.0000   
         C         C         1.0       0.06520302274464296           0.35328906547886396          0.4875328045498477 1.0000   
         C         C         1.0       0.04347135730472096           0.4152011310010979 0.4801745234526617 1.0000   
         C         C         1.0       0.019284500394887827          0.41820952152397617          0.4554540356533548 1.0000   
         C         C         1.0       0.015705220393512853          0.4311323995435512 0.4064687376616568 1.0000   
         C         C         1.0       0.039466626522430825          0.4378220814777333 0.38325634607507336          1.0000   
         C         C         1.0       0.06492842292574696           0.43177798686780505          0.40488502087922673          1.0000   
         C         C         1.0       0.06675023961611948           0.41853369156196535          0.45242131200635183          1.0000   
         C         C         1.0       0.989337778087139   0.42633994536529723           0.36945227538030573          1.0000   
         C         C         1.0       0.9095016395356862  0.4273388444896505  0.439659051105768  1.0000   
         C         C         1.0       0.9164581354864115  0.4065498224348799  0.4051046946953914 1.0000   
         C         C         1.0       0.9421707702552699  0.4041365792397704  0.3877198678535184 1.0000   
         C         C         1.0       0.9622750313283946  0.4221868493697692  0.40211934437104735          1.0000   
         C         C         1.0       0.9553850282139534  0.4401451998343959  0.44485835446483707          1.0000   
         C         C         1.0       0.9301154559790725  0.4422518045898085  0.46491540782204727          1.0000   
         C         C         1.0       0.9987114214282038  0.40105448427426005           0.33434977143479633          1.0000   
         C         C         1.0       0.011998930899033367          0.4049671858623872 0.28627787799546567          1.0000   
         C         C         1.0       0.021245899541047608          0.3820995100003472 0.25890137901272975          1.0000   
         C         C         1.0       0.023415029110072316          0.35674194672082   0.28016874301437145          1.0000   
         C         C         1.0       0.008687121190468439          0.35255005952243507          0.32599256651122066          1.0000   
         C         C         1.0       0.9985727723219873  0.37405285065781396           0.3536229050493218 1.0000   
         C         C         1.0       0.9622598769161395  0.4489713831161295  0.29226342596045396          1.0000   
         C         C         1.0       0.9607937163056919  0.46669990750667284           0.25017281528375473          1.0000   
         C         C         1.0       0.9762898679315198  0.4900375483103082  0.25278988702273236          1.0000   
         C         C         1.0       0.9907915862364158  0.496963180705795   0.2979853175866968 1.0000   
         C         C         1.0       0.9934055265721744  0.4776774926429542  0.33894493511099333          1.0000   
         C         C         1.0       0.9816156610962463  0.4524033265599179  0.3351815545227244 1.0000   
         H         H         1.0       0.12216470981611027           0.35593723529728843          0.512333108072146  1.0000   
         H         H         1.0       0.09399280041230096           0.43814721021716213          0.5423365782313107 1.0000   
         H         H         1.0       0.11676230821180189           0.43564215460243016          0.6311585052790423 1.0000   
         H         H         1.0       0.14579456135447333           0.357342605493654  0.5978815441622163 1.0000   
         H         H         1.0       0.0851239269153985  0.37416268263137903           0.36165342715941784          1.0000   
         H         H         1.0       0.06821049423093184           0.32918417175544273          0.33817136502438006          1.0000   
         H         H         1.0       0.04988343651692562           0.3147907544590018 0.5032626241417651 1.0000   
         H         H         1.0       0.06598811079037281           0.360830495448895  0.5274958716930362 1.0000   
         H         H         1.0       0.045622710601809224          0.407207311639427  0.519665439612439  1.0000   
         H         H         1.0       0.0019075252957272415         0.4119382723311177 0.47648724050440283          1.0000   
         H         H         1.0       0.039247747181931913          0.44525793713044026          0.3424117155465742 1.0000   
         H         H         1.0       0.08117353943646122           0.43467204849151214          0.37520041402862464          1.0000   
         H         H         1.0       0.900400886659099   0.3941342242892779  0.387905208682628  1.0000   
         H         H         1.0       0.9463249050591968  0.38930589085086037           0.3571926239949821 1.0000   
         H         H         1.0       0.9700044943858671  0.4557318917847526  0.4561941610996944 1.0000   
         H         H         1.0       0.9265575227867585  0.45580349223509614           0.4995397560501006 1.0000   
         H         H         1.0       0.013913561819856035          0.4258890873539071 0.26864183410047004          1.0000   
         H         H         1.0       0.03224085492968087           0.3853215315131511 0.22487316070478117          1.0000   
         H         H         1.0       0.006856441482944842          0.333585001050242  0.34055596150471795          1.0000   
         H         H         1.0       0.9892405878317346  0.36937581339915854           0.3918147126126449 1.0000   
         H         H         1.0       0.9527268813309698  0.42951400857957267           0.29317947498895625          1.0000   
         H         H         1.0       0.9478436023473704  0.46024103751619866           0.21696684610684186          1.0000   
         H         H         1.0       0.0006538184226518862         0.5165503049223475 0.304374448968169  1.0000   
         H         H         1.0       0.0084487474729813  0.4814407290817959  0.36831616226725644          1.0000   
         C         C         1.0       0.8331582084705674  0.46019580439252855           0.43326747703413826          1.0000   
         C         C         1.0       0.8204002925537486  0.4519260582225758  0.47953579399416935          1.0000   
         C         C         1.0       0.7923150923784938  0.45446126429190525           0.4857131691332807 1.0000   
         C         C         1.0       0.7767339346634027  0.46823051407151395           0.44740312468790006          1.0000   
         C         C         1.0       0.7909485810453022  0.4804297289571586  0.40465241159325094          1.0000   
         C         C         1.0       0.8189761044627555  0.4778265336880262  0.3982430676951801 1.0000   
         H         H         1.0       0.8307930003788081  0.44419908003323033           0.5153690978707298 1.0000   
         H         H         1.0       0.7822484772078653  0.4493423983423131  0.5218901361015233 1.0000   
         H         H         1.0       0.7810227509553014  0.49422921674371795           0.3771001484231758 1.0000   
         H         H         1.0       0.8285059343924286  0.48775843649646966           0.3648065340346791 1.0000   
         C         C         1.0       0.7376748322369246  0.5208739449299973  0.43102844569409665          1.0000   
         C         C         1.0       0.7280850958453764  0.49539654099479885           0.42506266203588533          1.0000   
         C         C         1.0       0.7019762582901184  0.4925753237597754  0.40111540564352516          1.0000   
         C         C         1.0       0.6852941566030455  0.5139723770517646  0.3899896841908011 1.0000   
         C         C         1.0       0.6951778259620583  0.5398218754118231  0.40059555196069807          1.0000   
         C         C         1.0       0.7210356395207652  0.5436974177015187  0.42062799858947464          1.0000   
         C         C         1.0       0.7434137592903078  0.4710207672342617  0.45170212806549787          1.0000   
         C         C         1.0       0.7309650654693105  0.47283458943791357           0.5091741992280076 1.0000   
         C         C         1.0       0.7064530742971772  0.46070952051509    0.5237590906818563 1.0000   
         C         C         1.0       0.6942528176100927  0.4691016309375192  0.5698424624131019 1.0000   
         C         C         1.0       0.7059962788713127  0.48962546718058153           0.6000410064131989 1.0000   
         C         C         1.0       0.7302474956921329  0.5010374187387003  0.5849684023842016 1.0000   
         C         C         1.0       0.7432013830309537  0.49142889185131017           0.5417977932415082 1.0000   
         C         C         1.0       0.7377799979799249  0.44351943868298127           0.3647855128572236 1.0000   
         C         C         1.0       0.7328282539264527  0.42133209140954925           0.335485103742416  1.0000   
         C         C         1.0       0.7272792915186965  0.39633778686657034           0.3604861358050258 1.0000   
         C         C         1.0       0.7273479881237912  0.39664142089576826           0.4157258151495224 1.0000   
         C         C         1.0       0.7354584223825626  0.4176278571919986  0.44821152681971377          1.0000   
         C         C         1.0       0.7390836350691066  0.44253807304607096           0.4210583696282731 1.0000   
         C         C         1.0       0.7169619194949046  0.3695871739997196  0.3275405816823915 1.0000   
         C         C         1.0       0.6333367525194558  0.3761903137764558  0.384496328751955  1.0000   
         C         C         1.0       0.6442564541893172  0.3969589453433926  0.35319280473824616          1.0000   
         C         C         1.0       0.6697774875124963  0.39266517960088504           0.33136775776225624          1.0000   
         C         C         1.0       0.685525320309292   0.3699973210953172  0.34364400748780677          1.0000   
         C         C         1.0       0.6736375744200113  0.35051484059185206           0.3757487912019229 1.0000   
         C         C         1.0       0.6477674202198606  0.3530772657332575  0.3946059864825153 1.0000   
         C         C         1.0       0.7298269074409295  0.3404961665061209  0.34155233151271497          1.0000   
         C         C         1.0       0.7508590787706296  0.33703165792069795           0.37771034115052665          1.0000   
         C         C         1.0       0.7618033287478392  0.3115465715983714  0.38789311666773296          1.0000   
         C         C         1.0       0.7523183871231867  0.2894754670967837  0.3605399964476056 1.0000   
         C         C         1.0       0.7322222644677561  0.2927177182923198  0.3228403883208255 1.0000   
         C         C         1.0       0.7214471581000242  0.31821280175013356           0.3120355870434441 1.0000   
         C         C         1.0       0.7024197750810433  0.3693502688618615  0.22553091433151665          1.0000   
         C         C         1.0       0.7102782680266081  0.36740475927917554           0.1734687949896657 1.0000   
         C         C         1.0       0.7367304075689811  0.3690011314506514  0.15826411424401382          1.0000   
         C         C         1.0       0.7569041412810945  0.37101498264571786           0.19758426342268579          1.0000   
         C         C         1.0       0.7491243847305709  0.373713805310854   0.2502369634770402 1.0000   
         C         C         1.0       0.7227552980046574  0.37218176971197525           0.2663067733913371 1.0000   
         H         H         1.0       0.7567635101946817  0.5240250895245219  0.4529259066469911 1.0000   
         H         H         1.0       0.6932562721884613  0.47148752503239294           0.3951546024698175 1.0000   
         H         H         1.0       0.6641629408545151  0.5096345637567372  0.3751370235973074 1.0000   
         H         H         1.0       0.7278101346633855  0.5638836108798411  0.43173834752665735          1.0000   
         H         H         1.0       0.6986802309234768  0.44542490873445484           0.4987356439596602 1.0000   
         H         H         1.0       0.6760056260075376  0.45930280141636154           0.5816096114430329 1.0000   
         H         H         1.0       0.7385274786458238  0.5166456000667413  0.6118372604018469 1.0000   
         H         H         1.0       0.761613068051672   0.49994202369983604           0.5303356193814228 1.0000   
         H         H         1.0       0.7415135357807893  0.46167197853022235           0.343008926450965  1.0000   
         H         H         1.0       0.7317507302665499  0.4239079782526425  0.2929853772000616 1.0000   
         H         H         1.0       0.7222927619778328  0.3774342188022723  0.43542496289797955          1.0000   
         H         H         1.0       0.7358841899715444  0.4142197073225341  0.48979415635570844          1.0000   
         H         H         1.0       0.6333713666478724  0.4161176647365069  0.3487880229609671 1.0000   
         H         H         1.0       0.6774692626701811  0.4097968687999804  0.3118320013248494 1.0000   
         H         H         1.0       0.687443867791413   0.3347730989716413  0.3914042571811692 1.0000   
         H         H         1.0       0.6378357079648018  0.3381590353303169  0.4169807109128799 1.0000   
         H         H         1.0       0.7597835399124904  0.3550810030731023  0.39487371057382226          1.0000   
         H         H         1.0       0.7783425422950634  0.3077862234425878  0.4165380765272901 1.0000   
         H         H         1.0       0.7243139740555934  0.274846394763916   0.30515460800748406          1.0000   
         H         H         1.0       0.7035511755560105  0.3197808149908271  0.2886098058989977 1.0000   
         H         H         1.0       0.6814229590195447  0.3663848372770515  0.2339162970499513 1.0000   
         H         H         1.0       0.6959065576146364  0.3637528021959677  0.143709111963995  1.0000   
         H         H         1.0       0.7787420109952521  0.3725906001152792  0.1846898550667731 1.0000   
         H         H         1.0       0.7662142369777372  0.37416387066122575           0.2770296542926745 1.0000   
         C         C         1.0       0.5866309326290877  0.13242884191534052           0.07887129468644338          1.0000   
         C         C         1.0       0.5875164755332865  0.1188275711997191  0.12707388052855342          1.0000   
         C         C         1.0       0.5636197982133604  0.1099114540067807  0.14885956656329824          1.0000   
         C         C         1.0       0.5382766158467154  0.11486160814327784           0.1257115921771959 1.0000   
         C         C         1.0       0.5381535993838625  0.12886170209738945           0.07764564805157548          1.0000   
         C         C         1.0       0.5620232948280361  0.13777159704650505           0.0548363209189493 1.0000   
         H         H         1.0       0.6060945662338479  0.11213872565452743           0.14673230746506294          1.0000   
         H         H         1.0       0.5631170015312059  0.09813275663063048           0.18504684292185952          1.0000   
         H         H         1.0       0.5187760135021567  0.1314817342858836  0.057187247065649816         1.0000   
         H         H         1.0       0.5625281805174013  0.14665611214295565           0.014685663185924238         1.0000   
         C         C         1.0       0.4854025044291658  0.14580309434138372           0.14761218991853975          1.0000   
         C         C         1.0       0.4840091354114555  0.11811383632411632           0.13403778501081037          1.0000   
         C         C         1.0       0.45874596866952333           0.10592350602289935          0.1295426662041194 1.0000   
         C         C         1.0       0.43657803831197617           0.12307414157527652          0.1327575870809002 1.0000   
         C         C         1.0       0.43887833845880075           0.15043466964657437          0.1455202376475425 1.0000   
         C         C         1.0       0.46336503370576443           0.16288934176760872          0.14969173167593758          1.0000   
         C         C         1.0       0.5100780699712693  0.09968121663261531           0.14312110074012793          1.0000   
         C         C         1.0       0.5098289760295978  0.09472635813065877           0.20577870538635887          1.0000   
         C         C         1.0       0.49918799828976484           0.07012519428684616          0.22284391714845697          1.0000   
         C         C         1.0       0.49948755153430474           0.0622287791345153 0.27633983809704726          1.0000   
         C         C         1.0       0.507004511043569   0.0814044361116475  0.31536590575904616          1.0000   
         C         C         1.0       0.5159166702522281  0.10664228920089469           0.30096630625758425          1.0000   
         C         C         1.0       0.5182623746897133  0.11224915469163799           0.247239494177163  1.0000   
         C         C         1.0       0.49992829164678887           0.07047095421587235          0.06050307209315431          1.0000   
         C         C         1.0       0.5050807167994108  0.04978208176440657           0.026528612609918012         1.0000   
         C         C         1.0       0.5232200362837542  0.02900417511281783           0.04147129055632348          1.0000   
         C         C         1.0       0.5355382278662664  0.030655229205360568         0.090412740149032  1.0000   
         C         C         1.0       0.5317487030819646  0.05276786624147145           0.12117558357865273          1.0000   
         C         C         1.0       0.5136537144890504  0.07266084972527476           0.10815197663151908          1.0000   
         C         C         1.0       0.5300464628174617  0.0036432733855296107        0.006543515337894545         1.0000   
         C         C         1.0       0.5112636098197435  0.9376058671777374  0.11830016493629092          1.0000   
         C         C         1.0       0.4905661170214294  0.9552145443865299  0.10491435126650162          1.0000   
         C         C         1.0       0.49552141960877166           0.9748431871725607 0.06629984593335325          1.0000   
         C         C         1.0       0.5215369244149671  0.9788675107452622  0.044649524844448285         1.0000   
         C         C         1.0       0.5430517736431097  0.9620166451519228  0.06528713853252288          1.0000   
         C         C         1.0       0.5377434551640716  0.941793119695898   0.10201262167178915          1.0000   
         C         C         1.0       0.5622156069699942  0.0038901196943210703        0.9866517295709633 1.0000   
         C         C         1.0       0.5782608981689856  0.026884138407076374         0.9955700334701603 1.0000   
         C         C         1.0       0.6016297913223149  0.02968679190364698           0.967504893848595  1.0000   
         C         C         1.0       0.6092621224795536  0.01181949624475287           0.9308686586727876 1.0000   
         C         C         1.0       0.5927098229908343  0.9886969055626628  0.9198868276297499 1.0000   
         C         C         1.0       0.5701683446416551  0.9841461990469761  0.9509647239780405 1.0000   
         C         C         1.0       0.501700105526017   0.9759029204763745  0.9363079799220732 1.0000   
         C         C         1.0       0.4960381388991319  0.9693619022178447  0.8840769755416494 1.0000   
         C         C         1.0       0.5028500560291899  0.9878859810270765  0.8436652906200718 1.0000   
         C         C         1.0       0.512574259272891   0.013130376266726085         0.8580404357446417 1.0000   
         C         C         1.0       0.517857584459928   0.018318783831945407         0.9098082597763154 1.0000   
         C         C         1.0       0.5138543829098239  0.00015640393797311525       0.949943269241447  1.0000   
         H         H         1.0       0.5052710264660614  0.153913797647937   0.15756358097303091          1.0000   
         H         H         1.0       0.4550076377245438  0.08486218370209686           0.12187571225119549          1.0000   
         H         H         1.0       0.41871715762278555           0.11215115053183466          0.13206683985843484          1.0000   
         H         H         1.0       0.4656466691603399  0.18466539206285892           0.16068872866506687          1.0000   
         H         H         1.0       0.4866309381766735  0.05807750454541405           0.19377443405537778          1.0000   
         H         H         1.0       0.4901380558485732  0.043711775504643446         0.2914654190450722 1.0000   
         H         H         1.0       0.5211095266425645  0.12209575181530807           0.3276224355988756 1.0000   
         H         H         1.0       0.521404001838197   0.13249160330690524           0.23191055030003008          1.0000   
         H         H         1.0       0.48573451968176595           0.08708721257006813          0.0482147795955441 1.0000   
         H         H         1.0       0.4946518132432357  0.04857262365699877           0.9896490821144678 1.0000   
         H         H         1.0       0.5499833336945202  0.01601370245742939           0.10478628475846263          1.0000   
         H         H         1.0       0.5451267115535907  0.05466741636057204           0.1531319123733989 1.0000   
         H         H         1.0       0.4708795316038324  0.95256100980346    0.12320285226930983          1.0000   
         H         H         1.0       0.4798185085452397  0.988939754322832   0.056836958585313235         1.0000   
         H         H         1.0       0.5635909653019177  0.9646190605821436  0.05675290623143403          1.0000   
         H         H         1.0       0.550744985807528   0.9243744148405268  0.11626765041893639          1.0000   
         H         H         1.0       0.570357549895908   0.043900126874134804         0.017343031480852256         1.0000   
         H         H         1.0       0.6140893176018222  0.047593341649462495         0.9738346256683277 1.0000   
         H         H         1.0       0.5976763432745815  0.9755092376807847  0.886863796112423  1.0000   
         H         H         1.0       0.5583182635520119  0.9660178479997211  0.9421979821108275 1.0000   
         H         H         1.0       0.49981017046362713           0.9589075806260431 0.9639280360219552 1.0000   
         H         H         1.0       0.48881924388208287           0.9494962338989189 0.8700877838883143 1.0000   
         H         H         1.0       0.5152510182186086  0.02905314329395181           0.8262987568289322 1.0000   
         H         H         1.0       0.5296881917320146  0.036064413919997484         0.9171988502239505 1.0000   
         C         C         1.0       0.6292497932564305  0.30878738551089074           0.18326047382395844          1.0000   
         C         C         1.0       0.6550397361495074  0.30462460763958715           0.20164606325500242          1.0000   
         C         C         1.0       0.6648569835464331  0.2782666380622035  0.21091930693071317          1.0000   
         C         C         1.0       0.6486746141957428  0.2555427147558935  0.20259606658026402          1.0000   
         C         C         1.0       0.6239888679160248  0.2599886603361345  0.17706472435839815          1.0000   
         C         C         1.0       0.6139608689634803  0.2869178174089587  0.16979930518662367          1.0000   
         H         H         1.0       0.6674126462220933  0.32205896655467814           0.20657000047215235          1.0000   
         H         H         1.0       0.6841273918532201  0.27667878202543195           0.2279245053690903 1.0000   
         H         H         1.0       0.6129076072994871  0.24436198085619024           0.15600532219376487          1.0000   
         H         H         1.0       0.5941544550223833  0.28926048114207176           0.15770157881728025          1.0000   
         C         C         1.0       0.6139146316485851  0.21162275675038988           0.26060248349233595          1.0000   
         C         C         1.0       0.6378600428585035  0.20451422335562652           0.23496651040084587          1.0000   
         C         C         1.0       0.6450581577574851  0.17781805829631958           0.23374705727929396          1.0000   
         C         C         1.0       0.6261398804817105  0.1576115758664709  0.24839600014710744          1.0000   
         C         C         1.0       0.6019909267842355  0.16466088187467273           0.2695595301902147 1.0000   
         C         C         1.0       0.5969361070614103  0.19195085100667475           0.2800536947898841 1.0000   
         C         C         1.0       0.6596556828658856  0.2260328227384958  0.21736837050997684          1.0000   
         C         C         1.0       0.6795338136044     0.226221366244093   0.26935790863792863          1.0000   
         C         C         1.0       0.7044899605095076  0.21222408505959017           0.2706656434326265 1.0000   
         C         C         1.0       0.7225605184376299  0.21620147946978713           0.31147383784527916          1.0000   
         C         C         1.0       0.7149673496270499  0.23078775693552198           0.35517043655144764          1.0000   
         C         C         1.0       0.6899272299927525  0.24301967629137197           0.35805473985761166          1.0000   
         C         C         1.0       0.6739880225800087  0.2431954428948892  0.3130667022526917 1.0000   
         C         C         1.0       0.6558108912956777  0.20798524152764702           0.11810829425637706          1.0000   
         C         C         1.0       0.6667404704538944  0.20143405171657947           0.06944221137864459          1.0000   
         C         C         1.0       0.6941543112161973  0.20232122908351985           0.05946656243928716          1.0000   
         C         C         1.0       0.7109548709373994  0.21298158122114016           0.10067888347115156          1.0000   
         C         C         1.0       0.7003242890479605  0.22286932247602156           0.1463853423154872 1.0000   
         C         C         1.0       0.6730647690396794  0.2183775365503946  0.15892837419987782          1.0000   
         C         C         1.0       0.7059681920857385  0.19449530785409766           0.003313173471932718         1.0000   
         C         C         1.0       0.6564180728667032  0.12350645767342276           0.013526566565395413         1.0000   
         C         C         1.0       0.6564637027197623  0.13641034591771536           0.9653386633861537 1.0000   
         C         C         1.0       0.6735230858226775  0.15776220147465117           0.9568705414291764 1.0000   
         C         C         1.0       0.692641453929093   0.16372483069202864           0.9964583561951398 1.0000   
         C         C         1.0       0.6966551827078209  0.14489456645955712           0.03864684459045442          1.0000   
         C         C         1.0       0.6774902597539149  0.12558920318082062           0.05022748041994741          1.0000   
         C         C         1.0       0.7377277058768561  0.19546919713403518           0.9961357753803974 1.0000   
         C         C         1.0       0.7526712653192661  0.21927446871659356           0.004940901597984215         1.0000   
         C         C         1.0       0.7808323860240722  0.2194286463989487  0.9944053659408199 1.0000   
         C         C         1.0       0.7933973687960354  0.1970472689056151  0.9783432678124747 1.0000   
         C         C         1.0       0.7786791908711653  0.1738223738314734  0.9655521870725258 1.0000   
         C         C         1.0       0.7520873888877847  0.17217891413846692           0.9788163814896697 1.0000   
         C         C         1.0       0.6987444045892788  0.2100941718604011  0.90359118525442   1.0000   
         C         C         1.0       0.6864657497391714  0.22400900256851744           0.8626068409654489 1.0000   
         C         C         1.0       0.6687117172026948  0.2435853509314738  0.8762973883251457 1.0000   
         C         C         1.0       0.6641589786932623  0.2504022964664758  0.9294233529910979 1.0000   
         C         C         1.0       0.677550359773591   0.23765228101292168           0.9692250884262961 1.0000   
         C         C         1.0       0.6931518581752879  0.21424669501745197           0.9581950201178824 1.0000   
         H         H         1.0       0.6100878962569218  0.23279212926890308           0.2674605375636216 1.0000   
         H         H         1.0       0.6655563065679119  0.1725606999542069  0.21176143338753076          1.0000   
         H         H         1.0       0.6310433045544089  0.13641762462721635           0.2412653164085892 1.0000   
         H         H         1.0       0.5774660501666345  0.19833890836394036           0.29904519065349344          1.0000   
         H         H         1.0       0.7108732472049534  0.19954355505125937           0.2391518724228879 1.0000   
         H         H         1.0       0.7413755309872568  0.20539593462037284           0.31253150715378125          1.0000   
         H         H         1.0       0.6881975129577382  0.2599774758690318  0.38725110792134426          1.0000   
         H         H         1.0       0.6584508508403396  0.2574576036939789  0.3136786191283086 1.0000   
         H         H         1.0       0.6339426761678751  0.20543492849925046           0.1204122226669072 1.0000   
         H         H         1.0       0.6541055121414778  0.1951194965472192  0.03779591723742426          1.0000   
         H         H         1.0       0.7328043437301729  0.21294624863673173           0.09472004442158413          1.0000   
         H         H         1.0       0.7145996823581702  0.23182059711816044           0.17476801200891287          1.0000   
         H         H         1.0       0.6388587742958051  0.13460838731219177           0.9366488224136897 1.0000   
         H         H         1.0       0.6691471615235104  0.17030198884547074           0.9219001781087725 1.0000   
         H         H         1.0       0.7123585759842207  0.14856666156892595           0.06604838947794844          1.0000   
         H         H         1.0       0.6799313201655851  0.11134666384330315           0.08335838121952512          1.0000   
         H         H         1.0       0.7418685036436827  0.23794864003646252           0.013394375597255204         1.0000   
         H         H         1.0       0.7908517287233425  0.23954256498264356           0.9948460097094941 1.0000   
         H         H         1.0       0.790631757584759   0.15698769269257107           0.9471353620965804 1.0000   
         H         H         1.0       0.7409310352314694  0.15409217971348524           0.9656287074267305 1.0000   
         H         H         1.0       0.7131394438138707  0.19411525414857664           0.8916694417730702 1.0000   
         H         H         1.0       0.6909025422133613  0.21855030822519406           0.8245904411478272 1.0000   
         H         H         1.0       0.6518255870361426  0.2693041090675908  0.9345066290008905 1.0000   
         H         H         1.0       0.6762177585750165  0.24510449754736954           0.008935795080953657         1.0000   
         C         C         1.0       0.1410310929667218  0.8502460930663098  0.2059992174205956 1.0000   
         C         C         1.0       0.156764949258573   0.8274826534854048  0.21535533464653273          1.0000   
         C         C         1.0       0.1832024297672394  0.8287794933296551  0.2305603027773101 1.0000   
         C         C         1.0       0.1959896475714268  0.8533830245678611  0.23652214658165915          1.0000   
         C         C         1.0       0.18088781268731144           0.8769544376569529 0.22637555528298345          1.0000   
         C         C         1.0       0.1541608153060716  0.8753979697733292  0.2140438739227202 1.0000   
         H         H         1.0       0.14740235335830332           0.8081060007271579 0.20651180564912358          1.0000   
         H         H         1.0       0.19389638955336322           0.8090450329779277 0.2392430588522448 1.0000   
         H         H         1.0       0.19021502620527692           0.8960056472510114 0.23382486272399763          1.0000   
         H         H         1.0       0.14420915813303817           0.8946570786373994 0.2132009486313938 1.0000   
         C         C         1.0       0.23804632634817444           0.88656609206029   0.17587735282615974          1.0000   
         C         C         1.0       0.2423630390684422  0.8777958692011825  0.2278088210598749 1.0000   
         C         C         1.0       0.2622035450276468  0.8900667618809086  0.2576705047680691 1.0000   
         C         C         1.0       0.27260678020192103           0.9144429117898576 0.2419713833896846 1.0000   
         C         C         1.0       0.26529876358998455           0.9262190982974838 0.19320321055663775          1.0000   
         C         C         1.0       0.24851662535980032           0.9113840717670733 0.159466900209019  1.0000   
         C         C         1.0       0.22816979992881914           0.8534253295600617 0.25618686763804543          1.0000   
         C         C         1.0       0.24773139167457572           0.8284978285245896 0.23762533417533174          1.0000   
         C         C         1.0       0.2724778212756704  0.8229810801793034  0.26327963120886805          1.0000   
         C         C         1.0       0.28752149745627165           0.8004598151692466 0.25209933212999014          1.0000   
         C         C         1.0       0.2791695096770682  0.7833827090188022  0.2110537169213271 1.0000   
         C         C         1.0       0.25734143138668736           0.7914163839281837 0.17896195004559803          1.0000   
         C         C         1.0       0.2439314193739417  0.8159338538871252  0.18860755032659599          1.0000   
         C         C         1.0       0.21383583501353534           0.8802654476327139 0.34129952260413515          1.0000   
         C         C         1.0       0.2192122017983795  0.8862758005511585  0.3940672588870458 1.0000   
         C         C         1.0       0.23264592910741808           0.8685389669944029 0.429467498226309  1.0000   
         C         C         1.0       0.23721120745239974           0.8421851348367754 0.40792766143021836          1.0000   
         C         C         1.0       0.23141767770869823           0.8360726607950391 0.3556291019206345 1.0000   
         C         C         1.0       0.22226946015280324           0.8555133801410907 0.31981987241274806          1.0000   
         C         C         1.0       0.2449617899131628  0.8805059788484353  0.48351864320050614          1.0000   
         C         C         1.0       0.2970081800723487  0.940271248824446   0.3994482499580445 1.0000   
         C         C         1.0       0.27309718772884306           0.9485071764768974 0.4212711883948329 1.0000   
         C         C         1.0       0.25856093013414033           0.9302382050928218 0.4487458850659697 1.0000   
         C         C         1.0       0.2664239499275499  0.903152043307495   0.4571561218839702 1.0000   
         C         C         1.0       0.28868996436931954           0.8945130151853393 0.43355820644364734          1.0000   
         C         C         1.0       0.3043339962554138  0.9125693491769523  0.4033246651631619 1.0000   
         C         C         1.0       0.259525684048887   0.8598938185541     0.5225362237874479 1.0000   
         C         C         1.0       0.246456758872052   0.8360752363276759  0.5345476751382782 1.0000   
         C         C         1.0       0.2596809563691506  0.814099382853745   0.5584936780861216 1.0000   
         C         C         1.0       0.2867866659645501  0.8169509657249278  0.5705580031076682 1.0000   
         C         C         1.0       0.2989811599180762  0.8422522155075963  0.5640672164011398 1.0000   
         C         C         1.0       0.2852878927572695  0.8640970956929925  0.5458957966175265 1.0000   
         C         C         1.0       0.23037985817393705           0.916573938712109  0.5526562759496589 1.0000   
         C         C         1.0       0.21136809593407435           0.929246926745678  0.5858470826478542 1.0000   
         C         C         1.0       0.18497064958121787           0.9190761691429898 0.5884922761849453 1.0000   
         C         C         1.0       0.17826453754710608           0.8956852340228302 0.564472838054786  1.0000   
         C         C         1.0       0.1960131450696612  0.8841224859407085  0.5283384978803478 1.0000   
         C         C         1.0       0.22191711027274125           0.8938153500922267 0.5214921097228494 1.0000   
         H         H         1.0       0.22419032869663805           0.8759306935116742 0.15154488520188103          1.0000   
         H         H         1.0       0.26561904154939675           0.8829857256822746 0.2974283142228472 1.0000   
         H         H         1.0       0.2878858494474597  0.9234314986694102  0.26852638984913724          1.0000   
         H         H         1.0       0.24172515386836171           0.9186973736824976 0.12053326427017458          1.0000   
         H         H         1.0       0.27822048895144313           0.8311866035264336 0.29989837975240646          1.0000   
         H         H         1.0       0.30298048073515943           0.7933397733066984 0.27954532068377086          1.0000   
         H         H         1.0       0.24687047963506903           0.778542027322954  0.1505938327761638 1.0000   
         H         H         1.0       0.22708291371521055           0.8232054419160426 0.16323199628203044          1.0000   
         H         H         1.0       0.20859252054327113           0.8975090161511448 0.31570115894983936          1.0000   
         H         H         1.0       0.21656469149865995           0.90777389363965   0.40260079969191825          1.0000   
         H         H         1.0       0.24781304785055092           0.8270873197215074 0.43413534826741923          1.0000   
         H         H         1.0       0.24052815261838983           0.8187650755468061 0.33867949459155544          1.0000   
         H         H         1.0       0.2644470684912543  0.9689064463093316  0.4258812827436887 1.0000   
         H         H         1.0       0.2399793737678111  0.9378952256360432  0.4659833607436187 1.0000   
         H         H         1.0       0.29500346847421094           0.8742262016634422 0.4366234074509275 1.0000   
         H         H         1.0       0.3222203826056512  0.9052681784453125  0.3801310795202324 1.0000   
         H         H         1.0       0.2249734539203031  0.8352595854694013  0.5257397638314697 1.0000   
         H         H         1.0       0.2488442820947214  0.7956828624092933  0.56710381436965   1.0000   
         H         H         1.0       0.31864819552006    0.845986633886528   0.5815130353424529 1.0000   
         H         H         1.0       0.293922459022462   0.8842117080607803  0.5447286911804587 1.0000   
         H         H         1.0       0.2516098393745507  0.9250968280112652  0.5539522433513442 1.0000   
         H         H         1.0       0.2158774331663971  0.9464581087704464  0.6150146757891819 1.0000   
         H         H         1.0       0.15691124572488555           0.8865274825006513 0.5658155493627257 1.0000   
         H         H         1.0       0.19099031193409693           0.865829772718295  0.5093333655011463 1.0000   
         C         C         1.0       0.32418856016021497           0.008099887033085285         0.32823969832357575          1.0000   
         C         C         1.0       0.3326071073277018  0.0009400275997726304        0.27825095841883013          1.0000   
         C         C         1.0       0.35381094699457855           0.012209717600824899         0.25383361908530894          1.0000   
         C         C         1.0       0.36752570029282505           0.03379331207454528          0.27564109947253346          1.0000   
         C         C         1.0       0.35623485680771194           0.043835563492075735         0.325039360431358  1.0000   
         C         C         1.0       0.33541846600198916           0.029988738581506302         0.3508423090760338 1.0000   
         H         H         1.0       0.32294801160680714           0.9843633358159865 0.2580254561457234 1.0000   
         H         H         1.0       0.357886323881576   0.0038648687670672643        0.21584992461794908          1.0000   
         H         H         1.0       0.3660585340098868  0.061339732923268775         0.3424079052593665 1.0000   
         H         H         1.0       0.3279754956123271  0.039483661624482025         0.3863813005059294 1.0000   
         C         C         1.0       0.3754874697489408  0.09705251045425878           0.2551564714183923 1.0000   
         C         C         1.0       0.39713712345460994           0.07840564531756833          0.25855398623525855          1.0000   
         C         C         1.0       0.4230902840732847  0.09026938675897567           0.2622438668746887 1.0000   
         C         C         1.0       0.4260902736628697  0.11841345355798105           0.25769696972340395          1.0000   
         C         C         1.0       0.4049777288862038  0.1346976255709431  0.24222162808520836          1.0000   
         C         C         1.0       0.3795030983515325  0.12349809636641984           0.24401726525382883          1.0000   
         C         C         1.0       0.3946867392096982  0.04528000357901085           0.2517703822010457 1.0000   
         C         C         1.0       0.3971768520426577  0.04300719931153618           0.1884528941666338 1.0000   
         C         C         1.0       0.4207102942000973  0.03685673102564291           0.15931018940591013          1.0000   
         C         C         1.0       0.4225164648206759  0.03967379720028408           0.10569842144903553          1.0000   
         C         C         1.0       0.3991355067336666  0.04610504840050633           0.0790001446874058 1.0000   
         C         C         1.0       0.37500474461278865           0.04869353907427598          0.10413494398081122          1.0000   
         C         C         1.0       0.374168731217246   0.04931589861231278           0.1588646501597283 1.0000   
         C         C         1.0       0.4282567035970857  0.03516703729770643           0.3285685212457165 1.0000   
         C         C         1.0       0.4421207266701081  0.016825776716619778         0.35955224298022437          1.0000   
         C         C         1.0       0.4457690665602688  0.9907024717812989  0.3431580492287483 1.0000   
         C         C         1.0       0.4368689276234982  0.9831478476986405  0.2943310350053072 1.0000   
         C         C         1.0       0.4207432489974568  0.0007951188896433425        0.2641538335434261 1.0000   
         C         C         1.0       0.4160495240918083  0.0279525570184469  0.28203166129092616          1.0000   
         C         C         1.0       0.45602168873684296           0.9659099476446674 0.3839646495833092 1.0000   
         C         C         1.0       0.5176119729422671  0.912321747469548   0.3170138138132848 1.0000   
         C         C         1.0       0.5181396293239006  0.9406153219116812  0.3061087113579456 1.0000   
         C         C         1.0       0.49676910965553256           0.9562484837880433 0.3250973755073175 1.0000   
         C         C         1.0       0.47603795753505257           0.9442423127048551 0.3545289087170252 1.0000   
         C         C         1.0       0.47728169386136593           0.9163707038916854 0.36418237225024497          1.0000   
         C         C         1.0       0.49570795660822303           0.9000044159369621 0.3388460072672691 1.0000   
         C         C         1.0       0.4300123037261565  0.9489700456449297  0.40447015677733184          1.0000   
         C         C         1.0       0.40740515835941404           0.9427119053135419 0.3735991465477008 1.0000   
         C         C         1.0       0.3903459552860786  0.9217801017758623  0.38790056356324387          1.0000   
         C         C         1.0       0.3949982286208225  0.9063238992851885  0.43167316040028775          1.0000   
         C         C         1.0       0.4158607145736479  0.9143723567111811  0.466093191678606  1.0000   
         C         C         1.0       0.4322294803168512  0.9357357505182236  0.4522456281759005 1.0000   
         C         C         1.0       0.4997741317821978  0.9656420792739547  0.45098787756263053          1.0000   
         C         C         1.0       0.5076624119788674  0.9639765332536966  0.5047153116133537 1.0000   
         C         C         1.0       0.49236901919326986           0.9781837747455381 0.5385144956515076 1.0000   
         C         C         1.0       0.4697230578785168  0.9935019500328164  0.5232384430794056 1.0000   
         C         C         1.0       0.46170621835771775           0.9928623866452034 0.4720277227475656 1.0000   
         C         C         1.0       0.47521389015739696           0.9772144264123406 0.4345430676571164 1.0000   
         H         H         1.0       0.35396860908707783           0.09067398452720776          0.2494375133959691 1.0000   
         H         H         1.0       0.43933378685935354           0.07690460122721521          0.26977910256039755          1.0000   
         H         H         1.0       0.4460680488340532  0.12747473044308277           0.2574976263163584 1.0000   
         H         H         1.0       0.3608915405037278  0.13615397483416714           0.2332062611447244 1.0000   
         H         H         1.0       0.4395822215852882  0.03245096609606812           0.17919368822592438          1.0000   
         H         H         1.0       0.4430811363219502  0.0381316004613077  0.08801571941776287          1.0000   
         H         H         1.0       0.3561210949342945  0.05377488674181996           0.08282114039056832          1.0000   
         H         H         1.0       0.35536384598175214           0.054515211094793514         0.17833008196585304          1.0000   
         H         H         1.0       0.4237326043894415  0.05655912431933863           0.3441822273754453 1.0000   
         H         H         1.0       0.44894545384814527           0.02583368961975885          0.39790268277246194          1.0000   
         H         H         1.0       0.4386570994301601  0.9606939622952236  0.28271101155504896          1.0000   
         H         H         1.0       0.40862481836890835           0.9963091976843141 0.22675602245638382          1.0000   
         H         H         1.0       0.5351143679983847  0.9502593666742537  0.2872077619772935 1.0000   
         H         H         1.0       0.4965311862551418  0.9780386286263205  0.3176523309324754 1.0000   
         H         H         1.0       0.46636348101603003           0.9047721275889274 0.3929110513272997 1.0000   
         H         H         1.0       0.4937008631048581  0.8782113373364044  0.3441675758453747 1.0000   
         H         H         1.0       0.4033541531341405  0.9519097460286304  0.33371476285126833          1.0000   
         H         H         1.0       0.3746617033550641  0.915733535644948   0.35970722408194383          1.0000   
         H         H         1.0       0.41943321162695657           0.9038647666026955 0.5032855010616465 1.0000   
         H         H         1.0       0.45084190004137015           0.938116598630496  0.476678444482017  1.0000   
         H         H         1.0       0.5115092097491769  0.9519976373452658  0.4273128763708555 1.0000   
         H         H         1.0       0.5245143662333428  0.9527933987370102  0.5187183494847898 1.0000   
         H         H         1.0       0.45577583856264026           0.0008897738654414233        0.5549672515809976 1.0000   
         H         H         1.0       0.44197100426878416           0.9986096933923799 0.46562711446242006          1.0000   
         C         C         1.0       0.0900771654644821  0.8372796124714559  0.5946614060802359 1.0000   
         C         C         1.0       0.10814695589610183           0.8549526841282651 0.6195172897771398 1.0000   
         C         C         1.0       0.12809234845130782           0.8452988437558547 0.6552360909017982 1.0000   
         C         C         1.0       0.12947169447876403           0.8177458716836745 0.6644471951225842 1.0000   
         C         C         1.0       0.10971172253659375           0.8004866357802098 0.6429147202279973 1.0000   
         C         C         1.0       0.09028014472514538           0.8101641528123484 0.6080213815653128 1.0000   
         H         H         1.0       0.10779852702803754           0.8763105311529318 0.6081979192671821 1.0000   
         H         H         1.0       0.14084839256353202           0.8608967061385848 0.6710303370964269 1.0000   
         H         H         1.0       0.11289946139076462           0.778337551530095  0.6515965243650357 1.0000   
         H         H         1.0       0.07887846410964909           0.7940524448367318 0.5875958995948449 1.0000   
         C         C         1.0       0.11549210341890831           0.7936242841752618 0.7734266386310538 1.0000   
         C         C         1.0       0.13521687503082883           0.8125749152391105 0.7555656705969713 1.0000   
         C         C         1.0       0.13637406844154087           0.8367725495964966 0.7838049974146964 1.0000   
         C         C         1.0       0.1205912733716326  0.8422060807916691  0.8287689402521305 1.0000   
         C         C         1.0       0.10029846608958637           0.8224256292306948 0.8428067356114989 1.0000   
         C         C         1.0       0.09805160466791242           0.7980341981230542 0.8134627386965065 1.0000   
         C         C         1.0       0.15201491157646488           0.8068729944072832 0.7028907596899846 1.0000   
         C         C         1.0       0.18082811464933435           0.8226171699385304 0.7071095298842208 1.0000   
         C         C         1.0       0.19022285734346486           0.831533185188158  0.6582614633180011 1.0000   
         C         C         1.0       0.21337599223855522           0.8445439022180777 0.6532566915134393 1.0000   
         C         C         1.0       0.23041597379109252           0.8474409776378532 0.6962039807728265 1.0000   
         C         C         1.0       0.22257514048129748           0.8386528831932208 0.7453870062216466 1.0000   
         C         C         1.0       0.19810920057264442           0.8252981202966533 0.7508828862871161 1.0000   
         C         C         1.0       0.17361815497978844           0.7595861922140681 0.7333557464244101 1.0000   
         C         C         1.0       0.18740546284423817           0.735854227332445  0.7202201878175672 1.0000   
         C         C         1.0       0.19121031619141854           0.7299230506970417 0.666523946736269  1.0000   
         C         C         1.0       0.17920189808602202           0.7457782654271629 0.6279315072093918 1.0000   
         C         C         1.0       0.16690715040657017           0.7692492236595092 0.6415215210716573 1.0000   
         C         C         1.0       0.16368534217196504           0.7771339152498978 0.692984140403494  1.0000   
         C         C         1.0       0.207847748130837   0.7038280629256457  0.6472000411822485 1.0000   
         C         C         1.0       0.22536259277646897           0.641294083902951  0.7688514782845259 1.0000   
         C         C         1.0       0.19983704148597412           0.6537031339748222 0.7628642518759927 1.0000   
         C         C         1.0       0.19471168290205831           0.6724839413418432 0.723793577335475  1.0000   
         C         C         1.0       0.21541143803320872           0.6816551554515858 0.6927987781448205 1.0000   
         C         C         1.0       0.24062736730102519           0.66931479266828   0.6989793921776084 1.0000   
         C         C         1.0       0.2455881533051262  0.64960447182242    0.736486365447206  1.0000   
         C         C         1.0       0.23456885360716023           0.7181423837613329 0.6231440084231687 1.0000   
         C         C         1.0       0.2392066817837268  0.7228219420296841  0.5697784376924655 1.0000   
         C         C         1.0       0.26145997990645503           0.7362056069955439 0.5522334169660336 1.0000   
         C         C         1.0       0.279679898021565   0.7482068924871117  0.5877925782312144 1.0000   
         C         C         1.0       0.27523931815112496           0.7445100359808977 0.641491825227342  1.0000   
         C         C         1.0       0.25439400799754514           0.7283798652691192 0.6588449102489051 1.0000   
         C         C         1.0       0.2025127258703083  0.6685152721824714  0.5695674576931701 1.0000   
         C         C         1.0       0.18779532035629232           0.6517483079411229 0.5344452548374786 1.0000   
         C         C         1.0       0.1599365946714416  0.6536231209374563  0.5315473916843915 1.0000   
         C         C         1.0       0.14722307808288226           0.6694083452222143 0.5700873615389822 1.0000   
         C         C         1.0       0.16132190385073103           0.6852099196121041 0.6065945980512287 1.0000   
         C         C         1.0       0.18966936583084948           0.6850467238113395 0.6052390689560249 1.0000   
         H         H         1.0       0.11288095271738423           0.7739125677052492 0.7555293178290426 1.0000   
         H         H         1.0       0.15048533203298872           0.8529719453219231 0.7771667250579081 1.0000   
         H         H         1.0       0.12195283821233605           0.8605324456370712 0.8513455530387674 1.0000   
         H         H         1.0       0.08520296769112486           0.7811521091304043 0.8294260141650032 1.0000   
         H         H         1.0       0.18050710353270763           0.8268671811259786 0.6212821343667246 1.0000   
         H         H         1.0       0.22015643076790822           0.852328564870129  0.6147112408983391 1.0000   
         H         H         1.0       0.23403697010032415           0.8417483545111936 0.7820528086078484 1.0000   
         H         H         1.0       0.1935920116189066  0.8157482501733704  0.791280192733115  1.0000   
         H         H         1.0       0.17505814726842642           0.766510058200718  0.7739893949272871 1.0000   
         H         H         1.0       0.19731986253555592           0.7222220230660279 0.7502915797407835 1.0000   
         H         H         1.0       0.17855327923035227           0.7397589423477428 0.5851205847705742 1.0000   
         H         H         1.0       0.16145314289319404           0.784614185180559  0.6090544278161415 1.0000   
         H         H         1.0       0.18222180453080603           0.6481073369989467 0.7867262954915267 1.0000   
         H         H         1.0       0.17557204405190685           0.6817382430317486 0.7215619727616738 1.0000   
         H         H         1.0       0.2573996086947854  0.6741193165935944  0.6724373014081834 1.0000   
         H         H         1.0       0.2644050144896869  0.6395950870335037  0.7402920316784473 1.0000   
         H         H         1.0       0.2250582087277756  0.7178765546695692  0.5400399170124869 1.0000   
         H         H         1.0       0.2621571440479573  0.7419325570005925  0.5114774111962729 1.0000   
         H         H         1.0       0.28993458958852464           0.7515401621093932 0.6724642175510096 1.0000   
         H         H         1.0       0.25195225260868104           0.7236389068442028 0.7016451677265423 1.0000   
         H         H         1.0       0.22411239020659438           0.6643338675861719 0.5725792445987209 1.0000   
         H         H         1.0       0.19919126295594092           0.6352584676373063 0.5127417737933926 1.0000   
         H         H         1.0       0.1251612335287418  0.6685149820617408  0.5745391496730142 1.0000   
         H         H         1.0       0.1511979580584405  0.6971523933085005  0.636011705881983  1.0000   
         C         C         1.0       0.2206190754249404  0.5735440594816327  0.7745952684104991 1.0000   
         C         C         1.0       0.21722927142447898           0.5488077259707298 0.7995070072546452 1.0000   
         C         C         1.0       0.2022387926341918  0.5293829145721934  0.7768456062432094 1.0000   
         C         C         1.0       0.18478763710388502           0.5341453807170915 0.7308705059255968 1.0000   
         C         C         1.0       0.18654195066382862           0.5599419672716789 0.7087674932054859 1.0000   
         C         C         1.0       0.2048297291819623  0.5789746674445688  0.728710099073337  1.0000   
         H         H         1.0       0.23284267344095072           0.5466471980373121 0.8330010793768029 1.0000   
         H         H         1.0       0.20021051604677098           0.5097786531434986 0.7955852973008385 1.0000   
         H         H         1.0       0.1756644464548467  0.566580625151659   0.6742802216555813 1.0000   
         H         H         1.0       0.20962977162787166           0.5983162261717283 0.7047718046484513 1.0000   
         C         C         1.0       0.12263015110796593           0.5415005265818756 0.7041288899936767 1.0000   
         C         C         1.0       0.1367637363081493  0.5185470855839355  0.6858480649023542 1.0000   
         C         C         1.0       0.12398474574331075           0.4999131368560302 0.6532765331209883 1.0000   
         C         C         1.0       0.09619484097164954           0.502226652884389  0.6459101686087152 1.0000   
         C         C         1.0       0.08180383891008636           0.5231879613844918 0.6711044070978717 1.0000   
         C         C         1.0       0.09485695126911553           0.5430364208922652 0.6979630487469407 1.0000   
         C         C         1.0       0.16782661180719338           0.5106398937301054 0.70455537878236   1.0000   
         C         C         1.0       0.15869921876629545           0.48942671184688796          0.750648694151729  1.0000   
         C         C         1.0       0.16414435590979437           0.4615619467026845 0.7495306844836481 1.0000   
         C         C         1.0       0.15950167789617367           0.4450927448747733 0.7906034929515514 1.0000   
         C         C         1.0       0.1459418247611179  0.4545368891443366  0.8342215117428667 1.0000   
         C         C         1.0       0.1360989345434226  0.47982529807553065           0.8344445368633506 1.0000   
         C         C         1.0       0.14196907616852905           0.49749226620760467          0.7945685492015865 1.0000   
         C         C         1.0       0.18306883879489377           0.5116255775944187 0.6084152766927398 1.0000   
         C         C         1.0       0.20355022603452694           0.5116898434956392 0.5715013133151107 1.0000   
         C         C         1.0       0.22923237226530138           0.5005860844564938 0.5816731416327208 1.0000   
         C         C         1.0       0.23197296246239035           0.48633434033232575          0.6283950358077611 1.0000   
         C         C         1.0       0.212096652690119   0.48576281446852004           0.6667978121155933 1.0000   
         C         C         1.0       0.1869919368114632  0.49976387733646194           0.6579514589391627 1.0000   
         C         C         1.0       0.25285348442295014           0.5059447384050474 0.5427794352229304 1.0000   
         C         C         1.0       0.22850149441623036           0.4427566133307456 0.4240481964091008 1.0000   
         C         C         1.0       0.22274420882283172           0.46929921909061134          0.4150797217294478 1.0000   
         C         C         1.0       0.22863955122734297           0.48894885882607936          0.4515836335818748 1.0000   
         C         C         1.0       0.2434209217848299  0.4829017911308398  0.4989062701963912 1.0000   
         C         C         1.0       0.24921083087119594           0.45541286516645885          0.5084647704142866 1.0000   
         C         C         1.0       0.24177744446868787           0.43635884742752373          0.4716993123861854 1.0000   
         C         C         1.0       0.28439317853042156           0.5025357425718241 0.5629073682959245 1.0000   
         C         C         1.0       0.29399352473658014           0.5094597293859117 0.6133282219513431 1.0000   
         C         C         1.0       0.32006922110335667           0.500952004082209  0.6270644077440769 1.0000   
         C         C         1.0       0.33816842001529496           0.4878893603755687 0.5929445607682501 1.0000   
         C         C         1.0       0.3291841011221671  0.4864293702785386  0.538520569699931  1.0000   
         C         C         1.0       0.3032413501410198  0.49364313302898294           0.5254291931042169 1.0000   
         C         C         1.0       0.26689154515411684           0.5412165166562748 0.4724665629688665 1.0000   
         C         C         1.0       0.2703818253163847  0.5679323307013476  0.4549984587305212 1.0000   
         C         C         1.0       0.26008135484888945           0.5886490237538674 0.48490229415982317          1.0000   
         C         C         1.0       0.250598224737109   0.584482038369801   0.5354920178439951 1.0000   
         C         C         1.0       0.2469885671912183  0.5574330066439782  0.5525671381885433 1.0000   
         C         C         1.0       0.25409370465177905           0.5355109771903819 0.5210333988783017 1.0000   
         H         H         1.0       0.13147337792032854           0.5552898474497087 0.7319264580989892 1.0000   
         H         H         1.0       0.13383607765942118           0.4825644605654717 0.6381883149198972 1.0000   
         H         H         1.0       0.08473260646885605           0.4861539556494596 0.6269142742292583 1.0000   
         H         H         1.0       0.08420308434237289           0.5602952286153495 0.713659159645399  1.0000   
         H         H         1.0       0.17597215697533763           0.45070821009754114          0.7164228306545575 1.0000   
         H         H         1.0       0.16318870067942592           0.42394591941005605          0.7886902683693708 1.0000   
         H         H         1.0       0.12823731417491524           0.4859589562285969 0.8722406539628447 1.0000   
         H         H         1.0       0.13549265294665225           0.5190082713824473 0.7996299820965522 1.0000   
         H         H         1.0       0.1672426311733941  0.5250312565214534  0.6012282714757566 1.0000   
         H         H         1.0       0.19986039146380885           0.5232024088570454 0.5354058757602037 1.0000   
         H         H         1.0       0.25135740728645517           0.476459253098875  0.6391528200238487 1.0000   
         H         H         1.0       0.21530624594260603           0.47539746435435215          0.704145388439183  1.0000   
         H         H         1.0       0.21340871185962418           0.47633674321230096          0.3792980012221132 1.0000   
         H         H         1.0       0.22490671403616982           0.5095213952978602 0.43896838384461573          1.0000   
         H         H         1.0       0.26465248950144715           0.44885896126951585          0.5385908984920174 1.0000   
         H         H         1.0       0.24597600184456744           0.41561974636269755          0.4772563707525659 1.0000   
         H         H         1.0       0.2793790732903947  0.5162124301798348  0.6408823777335944 1.0000   
         H         H         1.0       0.327418480183559   0.5042679390043692  0.6680714507151586 1.0000   
         H         H         1.0       0.342945662242342   0.4779053536674297  0.5084039839646735 1.0000   
         H         H         1.0       0.296351890077126   0.48736197606724657           0.48536619649661633          1.0000   
         H         H         1.0       0.27607437585930295           0.5229034916541476 0.4523794890211984 1.0000   
         H         H         1.0       0.27984919927397855           0.5704350843681668 0.4166637302736273 1.0000   
         H         H         1.0       0.2461082130355294  0.601663225563606   0.5639081523239968 1.0000   
         H         H         1.0       0.2398669458633775  0.5548922849468098  0.5922516510835458 1.0000   
         C         C         1.0       0.95392584256058    0.3850910745431159  0.8634297722070305 1.0000   
         C         C         1.0       0.9720247577254771  0.36733581331313186           0.8411342475366478 1.0000   
         C         C         1.0       0.9970524885058376  0.3765908239457968  0.8250539940016717 1.0000   
         C         C         1.0       0.004781687327588324          0.40283106799238444          0.8315883276093983 1.0000   
         C         C         1.0       0.985343895095337   0.4200421996629389  0.851710115764279  1.0000   
         C         C         1.0       0.9606530891802312  0.41269179096481123           0.8668960141686308 1.0000   
         H         H         1.0       0.9676190047687557  0.34507166687470864           0.8369246291336779 1.0000   
         H         H         1.0       0.01027898443765718           0.3622886969293    0.8032527948966329 1.0000   
         H         H         1.0       0.9880728301065776  0.4421965618476182  0.8590687008899034 1.0000   
         H         H         1.0       0.9464279326519635  0.42670082326892345           0.8875570861726365 1.0000   
         C         C         1.0       0.0150401246143117  0.45276867803251397           0.761935178074903  1.0000   
         C         C         1.0       0.034680735567594434          0.44676187993707456          0.799720277315057  1.0000   
         C         C         1.0       0.054805472774000386          0.4659291517149862 0.8100982098240498 1.0000   
         C         C         1.0       0.05491072450024315           0.4901709401706546 0.7811401921564779 1.0000   
         C         C         1.0       0.034724357175322185          0.4963826850240791 0.7428422828107969 1.0000   
         C         C         1.0       0.013824607753103457          0.4774902932669425 0.7373711065630597 1.0000   
         C         C         1.0       0.03471847518354365           0.4166906082711434 0.8276467678020291 1.0000   
         C         C         1.0       0.05807308552811552           0.4010121315158673 0.7940493858925656 1.0000   
         C         C         1.0       0.08491017333819828           0.4024532141324477 0.8126240396951029 1.0000   
         C         C         1.0       0.10613824589137599           0.38881268503444366          0.7853790326875231 1.0000   
         C         C         1.0       0.10106194128771206           0.37944192328181664          0.7346087295466551 1.0000   
         C         C         1.0       0.07411600633602622           0.3791578267943791 0.7138076419127222 1.0000   
         C         C         1.0       0.052972493892847305          0.3900386541966799 0.7458276948010635 1.0000   
         C         C         1.0       0.0397909147796105  0.43579306083357155           0.9232931592084428 1.0000   
         C         C         1.0       0.04003306987796895           0.43314871047258635          0.9761694631650828 1.0000   
         C         C         1.0       0.04174611879917167           0.4063590739851096 0.998708299980255  1.0000   
         C         C         1.0       0.04781896622415638           0.3843838005605915 0.9653459241329961 1.0000   
         C         C         1.0       0.04651463442532555           0.38910203837181245          0.9102983858747877 1.0000   
         C         C         1.0       0.04195745135509221           0.4153926147283402 0.8886031744856956 1.0000   
         C         C         1.0       0.03502984798613373           0.4004472859369373 0.059654936491644994         1.0000   
         C         C         1.0       0.11329900444124297           0.37297864486626264          0.1252706236972423 1.0000   
         C         C         1.0       0.10970080177797814           0.3992174767589912 0.10571808263023907          1.0000   
         C         C         1.0       0.08623431575380658           0.4069204703424964 0.08306848295543601          1.0000   
         C         C         1.0       0.06404802117014863           0.38928067444718484          0.07953605573889688          1.0000   
         C         C         1.0       0.06974453763096977           0.36223352631555494          0.09043622092796233          1.0000   
         C         C         1.0       0.09323070494530739           0.35489340437342887          0.11249524669449196          1.0000   
         C         C         1.0       0.010584843987809789          0.37909108672215674          0.0671792984270776 1.0000   
         C         C         1.0       0.9886258809919596  0.378899258855602   0.030941700201547073         1.0000   
         C         C         1.0       0.9708121608805798  0.35768717707009146           0.02792414997787307          1.0000   
         C         C         1.0       0.9726733056384826  0.33748750852219517           0.06553206258590438          1.0000   
         C         C         1.0       0.9904069629685385  0.3402109437515081  0.10779768497565545          1.0000   
         C         C         1.0       0.008427134538691261          0.3613120101920005 0.10993755797579552          1.0000   
         C         C         1.0       0.035624672064773266          0.43283489752405446          0.14198955312060368          1.0000   
         C         C         1.0       0.029691920801804494          0.4567990854754126 0.16749316274385784          1.0000   
         C         C         1.0       0.010178985947996821          0.473727590745553  0.14721321109428542          1.0000   
         C         C         1.0       0.9960304966819463  0.46652137595325255           0.10100905940508142          1.0000   
         C         C         1.0       0.002698032979585596          0.4428452905441691 0.07527815038829377          1.0000   
         C         C         1.0       0.02475185211150288           0.4260434260899615 0.09421960767564341          1.0000   
         H         H         1.0       0.9968655369002675  0.44014031948053817           0.7581335472184512 1.0000   
         H         H         1.0       0.07069061653428621           0.4607985536201162 0.8381206278406638 1.0000   
         H         H         1.0       0.07044108084306888           0.5051296758635582 0.7907006694353638 1.0000   
         H         H         1.0       0.9959090804171093  0.4826634082558417  0.7161634002904157 1.0000   
         H         H         1.0       0.09007647391764295           0.4126266687593468 0.8511727999667198 1.0000   
         H         H         1.0       0.12683801959648    0.3934299109366555  0.7979570172216256 1.0000   
         H         H         1.0       0.06840516260409735           0.3695276234754242 0.675122319153467  1.0000   
         H         H         1.0       0.03261343408385686           0.38818128432194876          0.7327323216638203 1.0000   
         H         H         1.0       0.03483527410962739           0.45628727623999227          0.9083972744344903 1.0000   
         H         H         1.0       0.03861366668104682           0.4512287118948879 0.003502849991345869         1.0000   
         H         H         1.0       0.05080026984416541           0.3642630588381914 0.9833753403292239 1.0000   
         H         H         1.0       0.04781280180426695           0.37105201102383767          0.8877306714956383 1.0000   
         H         H         1.0       0.12605425577119322           0.4146936651162519 0.11076732778425957          1.0000   
         H         H         1.0       0.08526203366889962           0.42850747512865667          0.07138552859420377          1.0000   
         H         H         1.0       0.054297803011910784          0.346729052134387  0.07747345579221032          1.0000   
         H         H         1.0       0.09279032990122715           0.3335308308451422 0.12059197220510587          1.0000   
         H         H         1.0       0.9898407292837834  0.39473066042172555           0.001714981349431266         1.0000   
         H         H         1.0       0.9558786874852696  0.3548978251589583  0.9959869828353894 1.0000   
         H         H         1.0       0.9907566031977946  0.3262941136079446  0.14120825027788464          1.0000   
         H         H         1.0       0.024571916432377217          0.35963315961693626          0.141377534879642  1.0000   
         H         H         1.0       0.049469794371399534          0.4187434965586755 0.15987326352328424          1.0000   
         H         H         1.0       0.040782693994310115          0.46074280794105127          0.2051262077160264 1.0000   
         H         H         1.0       0.9831676684573373  0.48078600331100235           0.08326626676835369          1.0000   
         H         H         1.0       0.99374831145224    0.4355492726471939  0.03740095729351567          1.0000   
         C         C         1.0       0.6435158046435144  0.33688722133516497           0.8048677688710257 1.0000   
         C         C         1.0       0.6567480982343764  0.3211872571016666  0.7676169981763844 1.0000   
         C         C         1.0       0.68100727784866    0.32985724123892024           0.7456494348688959 1.0000   
         C         C         1.0       0.6919787899970505  0.35498929869989787           0.7586409112765512 1.0000   
         C         C         1.0       0.6800236162999514  0.36976037735387707           0.8019070126190749 1.0000   
         C         C         1.0       0.6562286212740461  0.3594354427617418  0.8249392646036687 1.0000   
         H         H         1.0       0.6461255694003617  0.3044949999285801  0.7443655492332741 1.0000   
         H         H         1.0       0.6894690391606259  0.3169464111806136  0.713341020516196  1.0000   
         H         H         1.0       0.688627708390717   0.39033164827570455           0.8156078357924048 1.0000   
         H         H         1.0       0.6484318231895124  0.3706053706264601  0.8577219241293217 1.0000   
         C         C         1.0       0.6860627126639717  0.4159695665106128  0.7152285453257038 1.0000   
         C         C         1.0       0.711732281622414   0.4036354393071054  0.7221596182161465 1.0000   
         C         C         1.0       0.7341848944309092  0.42134332466404817           0.7233380685648723 1.0000   
         C         C         1.0       0.7311585667612406  0.44766702973448175           0.7167460601805192 1.0000   
         C         C         1.0       0.7059389886969724  0.45930397197104283           0.711086199116624  1.0000   
         C         C         1.0       0.6836236539693237  0.4436640350784473  0.7086258570573948 1.0000   
         C         C         1.0       0.7151302137943887  0.37066683917489285           0.7271003181150912 1.0000   
         C         C         1.0       0.7170061198254105  0.3621324547223841  0.6666735776920276 1.0000   
         C         C         1.0       0.7411430570607199  0.3636199622074981  0.6371034115011472 1.0000   
         C         C         1.0       0.7428628853869008  0.35357376373795363           0.5860486923481888 1.0000   
         C         C         1.0       0.7195965852345219  0.3475713638217253  0.5577356830263591 1.0000   
         C         C         1.0       0.6936584836941538  0.35170786837505547           0.5823079666336621 1.0000   
         C         C         1.0       0.6932827537596439  0.36062210709800224           0.6348742456976345 1.0000   
         C         C         1.0       0.7458533728800909  0.37162657821063094           0.808085172554949  1.0000   
         C         C         1.0       0.7655324004249133  0.36180156468501656           0.8437166561279555 1.0000   
         C         C         1.0       0.77911051944185    0.3375595865542134  0.8336761381261799 1.0000   
         C         C         1.0       0.7728308919718286  0.3238779100338469  0.7858561934537486 1.0000   
         C         C         1.0       0.7524951771868529  0.33355210387730844           0.7523736809536503 1.0000   
         C         C         1.0       0.7402385661275938  0.35868734107945954           0.761612797230793  1.0000   
         C         C         1.0       0.7995395984534113  0.3255803522605774  0.8748370618055651 1.0000   
         C         C         1.0       0.8744640838103631  0.3702522208286998  0.852072522925923  1.0000   
         C         C         1.0       0.8571846609366636  0.3797342305418574  0.8898164293409404 1.0000   
         C         C         1.0       0.8318963009778517  0.3688878164516739  0.8912963781953613 1.0000   
         C         C         1.0       0.825352021619617   0.344461083176996   0.8633451646930173 1.0000   
         C         C         1.0       0.8420754035337077  0.3366408261184532  0.8234217661551919 1.0000   
         C         C         1.0       0.8669946235454774  0.35014555422417454           0.8152604622138435 1.0000   
         C         C         1.0       0.8057244693755932  0.2948159131391077  0.8734962332551613 1.0000   
         C         C         1.0       0.7862840109165684  0.2749666290548138  0.8633892667699034 1.0000   
         C         C         1.0       0.7924895437280711  0.24776021294937525           0.8722508008480503 1.0000   
         C         C         1.0       0.8180050631129859  0.23987220186533664           0.889249591177661  1.0000   
         C         C         1.0       0.8374187034590012  0.259214235235915   0.9019042521685838 1.0000   
         C         C         1.0       0.8301974786964733  0.2865178044277078  0.895010001334258  1.0000   
         C         C         1.0       0.80410089645536    0.33321145646229955           0.9791805103859677 1.0000   
         C         C         1.0       0.792572865165188   0.3343749052712458  0.028456725933010633         1.0000   
         C         C         1.0       0.7646521420378506  0.33131437669153024           0.03427388982182289          1.0000   
         C         C         1.0       0.749472616515244   0.32422208556249155           0.9911266656509173 1.0000   
         C         C         1.0       0.7610146047275188  0.32403862433001457           0.9419898360336321 1.0000   
         C         C         1.0       0.788029673161331   0.32936904770780007           0.9339269945546085 1.0000   
         H         H         1.0       0.6684627986473912  0.40406350794446017           0.7072414286929735 1.0000   
         H         H         1.0       0.7540596130564113  0.41261344092459756           0.7249332841427207 1.0000   
         H         H         1.0       0.7498725178022523  0.460810528831583   0.7179132941073455 1.0000   
         H         H         1.0       0.6634501141189575  0.45266437184621783           0.6999649036587274 1.0000   
         H         H         1.0       0.7591887798871101  0.3722519074654567  0.6545421356240997 1.0000   
         H         H         1.0       0.7610384772628715  0.35422060544699363           0.5640149668221413 1.0000   
         H         H         1.0       0.6748122690383523  0.34736535058049595           0.5632382635061578 1.0000   
         H         H         1.0       0.673655641325816   0.3663498126413847  0.6485688991152121 1.0000   
         H         H         1.0       0.7341618620696235  0.389456246851675   0.8218277626701367 1.0000   
         H         H         1.0       0.7713583411322896  0.37268967694893934           0.8792188929288859 1.0000   
         H         H         1.0       0.7836560577539137  0.3063247974549817  0.7779662145399462 1.0000   
         H         H         1.0       0.7481583610522848  0.32018212243141264           0.7215805962639048 1.0000   
         H         H         1.0       0.8631280512474628  0.39730918581186514           0.9124692895007244 1.0000   
         H         H         1.0       0.8188898541997145  0.3771777368676801  0.9226376557123939 1.0000   
         H         H         1.0       0.8364526715967965  0.3235888665756519  0.7905929149742892 1.0000   
         H         H         1.0       0.8796408713743511  0.344252301732735   0.7841137866644163 1.0000   
         H         H         1.0       0.7646908491965206  0.27990312745522433           0.8529347895654378 1.0000   
         H         H         1.0       0.7770445346349353  0.23274825236171273           0.8693757545394927 1.0000   
         H         H         1.0       0.8581880797515082  0.2526336459438408  0.913037505394362  1.0000   
         H         H         1.0       0.8449561575067135  0.30158689404529043           0.9120844992364269 1.0000   
         H         H         1.0       0.8260509652975402  0.3379865619088749  0.9772515668375118 1.0000   
         H         H         1.0       0.8046781295332184  0.33930252477496703           0.06484440287058502          1.0000   
         H         H         1.0       0.7288996485638267  0.32093788883716035           0.9893994816490493 1.0000   
         H         H         1.0       0.7477570971124367  0.3190255153149368  0.9085393189495571 1.0000   
         C         C         1.0       0.20707006496782923           0.6839862343222551 0.04099975881081863          1.0000   
         C         C         1.0       0.20601486760756815           0.7124272881997089 0.028882055838199028         1.0000   
         C         C         1.0       0.18153166193641712           0.7257036452197078 0.03247090018149312          1.0000   
         C         C         1.0       0.15783472587331954           0.7124042867930458 0.04870267107955817          1.0000   
         C         C         1.0       0.15987230885154236           0.6841222502845292 0.05998943965542458          1.0000   
         C         C         1.0       0.1841720650195373  0.6702129569521824  0.05272120989268059          1.0000   
         H         H         1.0       0.22483269125324737           0.7251874742781991 0.023480968760990262         1.0000   
         H         H         1.0       0.18122914427695133           0.7480979938482746 0.03580102086580128          1.0000   
         H         H         1.0       0.14279549008785763           0.6734308891824208 0.07205317461030858          1.0000   
         H         H         1.0       0.18349116998673387           0.6477335044800295 0.05984762566195889          1.0000   
         C         C         1.0       0.102773843974173   0.6937709311035959  0.003286896070699319         1.0000   
         C         C         1.0       0.10158485224719316           0.7122026539141912 0.0470761438850531 1.0000   
         C         C         1.0       0.07660094819179375           0.7181975935002461 0.06716309762327222          1.0000   
         C         C         1.0       0.05433196753372482           0.7046546278696018 0.046386788768378207         1.0000   
         C         C         1.0       0.05477853792660503           0.6888566988231987 0.00019901133739752552       1.0000   
         C         C         1.0       0.07981111031872112           0.6833740517402469 0.9784301117050215 1.0000   
         C         C         1.0       0.12969985755163868           0.7277150493836799 0.06271021301827173          1.0000   
         C         C         1.0       0.1246552404570539  0.7545869455173018  0.02844169427351151          1.0000   
         C         C         1.0       0.11262931764344834           0.7769809758459588 0.051459762231043094         1.0000   
         C         C         1.0       0.09922102203095769           0.795861383453006  0.019951504668128894         1.0000   
         C         C         1.0       0.09795621775969567           0.7922126405665709 0.9644624541740606 1.0000   
         C         C         1.0       0.11336047896316925           0.7724841170198088 0.9423434580980138 1.0000   
         C         C         1.0       0.12543565556696928           0.7528796253206055 0.9732811393251785 1.0000   
         C         C         1.0       0.12339724791302276           0.7157489626319017 0.16150387428465293          1.0000   
         C         C         1.0       0.1303770325350324  0.7165849916899284  0.21567362335200851          1.0000   
         C         C         1.0       0.1506327920386339  0.7336897220387341  0.2321129149742861 1.0000   
         C         C         1.0       0.1615156891510019  0.7524435242343829  0.19530483718869604          1.0000   
         C         C         1.0       0.15318125809885996           0.7524842948068874 0.14261023270483486          1.0000   
         C         C         1.0       0.13493835150713762           0.7329064761622462 0.12513313650705005          1.0000   
         C         C         1.0       0.1625102837740073  0.7335110760362527  0.29510213626831455          1.0000   
         C         C         1.0       0.10882691234805231           0.8017869721647236 0.3388671602010354 1.0000   
         C         C         1.0       0.10103464214393794           0.7756562229457565 0.3405600851591348 1.0000   
         C         C         1.0       0.11646268577074212           0.7540109599442029 0.32845479302804453          1.0000   
         C         C         1.0       0.14406248327976307           0.7584241973171991 0.3185019346403551 1.0000   
         C         C         1.0       0.1536617473871444  0.7838452789661922  0.322156219507129  1.0000   
         C         C         1.0       0.13603816617223435           0.8054476291890724 0.3308412422247478 1.0000   
         C         C         1.0       0.19485046896865016           0.735238366587001  0.2879761870124053 1.0000   
         C         C         1.0       0.20995530888741523           0.7189489972112822 0.2503085794021815 1.0000   
         C         C         1.0       0.23698910578542817           0.7184208144525237 0.24389988036549484          1.0000   
         C         C         1.0       0.2512324359913791  0.7370715136257776  0.2735342992185435 1.0000   
         C         C         1.0       0.23854641318809552           0.7524290790326338 0.3124847661229096 1.0000   
         C         C         1.0       0.21039083908545458           0.7509184125945196 0.32294647185188985          1.0000   
         C         C         1.0       0.15573195155264413           0.7103026671985735 0.38064556175109654          1.0000   
         C         C         1.0       0.1549757301976037  0.6884273776696405  0.41454169236466   1.0000   
         C         C         1.0       0.15748914587971766           0.6622186291498457 0.39354703307675215          1.0000   
         C         C         1.0       0.15803975604038267           0.6587361163010268 0.337463299751375  1.0000   
         C         C         1.0       0.1594821636828725  0.6813501129992899  0.30543415826646503          1.0000   
         C         C         1.0       0.15913339900274653           0.7071096150597231 0.3270825781362688 1.0000   
         H         H         1.0       0.12206186266292374           0.6892954016209886 0.9883395983585626 1.0000   
         H         H         1.0       0.07400073513506356           0.7304269031465257 0.10347178719886507          1.0000   
         H         H         1.0       0.03519591570315983           0.7094456223583804 0.06422436808092535          1.0000   
         H         H         1.0       0.08311996055936999           0.6711077188709246 0.944045386243341  1.0000   
         H         H         1.0       0.1094313617127079  0.7772372541154579  0.0948539372266266 1.0000   
         H         H         1.0       0.08646714950326648           0.8113778149179735 0.03957652909104792          1.0000   
         H         H         1.0       0.11035349466789728           0.7666484550482526 0.9013010685646429 1.0000   
         H         H         1.0       0.13155150276977684           0.7344790160847516 0.9557265895818136 1.0000   
         H         H         1.0       0.10995922652427281           0.698233592602089  0.15008276599344594          1.0000   
         H         H         1.0       0.12284437595017073           0.7001620281668907 0.2427972172450575 1.0000   
         H         H         1.0       0.17648853624447666           0.7675361681017608 0.20848216346909496          1.0000   
         H         H         1.0       0.1609527928660708  0.7665229895020438  0.11535974070855648          1.0000   
         H         H         1.0       0.08025202277701649           0.7697863008548618 0.3465173869264521 1.0000   
         H         H         1.0       0.10712646459961715           0.7344408745880865 0.32912874241600587          1.0000   
         H         H         1.0       0.17411187730173963           0.789652492898232  0.3173158441957026 1.0000   
         H         H         1.0       0.1444884756695862  0.8263998133251657  0.3313999327445603 1.0000   
         H         H         1.0       0.19880197737858465           0.7027279825807689 0.23132867277771854          1.0000   
         H         H         1.0       0.24741657241768772           0.7048874260017716 0.21411288319593255          1.0000   
         H         H         1.0       0.24883186431442927           0.7670001589924634 0.3402709454340552 1.0000   
         H         H         1.0       0.20143682407810623           0.7621857266113548 0.3568981191429919 1.0000   
         H         H         1.0       0.1594887413418222  0.7298083840705641  0.39677159054470706          1.0000   
         H         H         1.0       0.15612018364117486           0.6942074218806523 0.45618451113284547          1.0000   
         H         H         1.0       0.16148556744361883           0.6383636334772729 0.3194097593250662 1.0000   
         H         H         1.0       0.16590173732903002           0.6780673431396737 0.2638671701179401 1.0000   
         C         C         1.0       0.15916088807785855           0.4039539812379256 0.21088288782382203          1.0000   
         C         C         1.0       0.18637426177345007           0.398852098885165  0.20801510943428592          1.0000   
         C         C         1.0       0.2044405678531263  0.4177211716249911  0.18565395121594783          1.0000   
         C         C         1.0       0.1948372173150414  0.4430681254281029  0.17177998481476653          1.0000   
         C         C         1.0       0.16742313744983714           0.44797510444581146          0.18164511549578144          1.0000   
         C         C         1.0       0.150308486183792   0.4302846694476388  0.20555212337309103          1.0000   
         H         H         1.0       0.19135735039816298           0.37642624876709385          0.21310356903446115          1.0000   
         H         H         1.0       0.224055767144988   0.4104723355289886  0.1817018247980402 1.0000   
         H         H         1.0       0.1584297174113254  0.46778585127952194           0.1760146662686921 1.0000   
         H         H         1.0       0.1283740503360451  0.43829628679155574           0.20934497368150917          1.0000   
         C         C         1.0       0.1812944810509791  0.4733317983268119  0.04892752639992204          1.0000   
         C         C         1.0       0.19535127456750528           0.4544362365116148 0.0791599723838805 1.0000   
         C         C         1.0       0.19963979255884862           0.4294837592920224 0.05409219607815641          1.0000   
         C         C         1.0       0.19144051023974498           0.42521587446952747          0.0033898529909581754        1.0000   
         C         C         1.0       0.17696087936504995           0.44467554935255366          0.9775856973141406 1.0000   
         C         C         1.0       0.17169635304021816           0.4702716738837597 0.9991023006189196 1.0000   
         C         C         1.0       0.2100358439445653  0.4624893252354194  0.13544783660002402          1.0000   
         C         C         1.0       0.24206767208002872           0.45693135361007475          0.12906913804297426          1.0000   
         C         C         1.0       0.25665839944248614           0.4525697050847923 0.17448214799074768          1.0000   
         C         C         1.0       0.2827867214390216  0.4458138456712575  0.1705473312364545 1.0000   
         C         C         1.0       0.29498802198629925           0.44369895578655755          0.12056001938357452          1.0000   
         C         C         1.0       0.2820564778453194  0.4519785017914416  0.07632452395073264          1.0000   
         C         C         1.0       0.25477486498009605           0.4593621364591692 0.0809498617365938 1.0000   
         C         C         1.0       0.21709661002431022           0.51382652903328   0.12465072991605122          1.0000   
         C         C         1.0       0.22740549912333766           0.5388562420977512 0.14502171388722054          1.0000   
         C         C         1.0       0.22779003731939237           0.5432053864634293 0.19973180021168307          1.0000   
         C         C         1.0       0.21519079774399988           0.5246118077277598 0.23291463990236946          1.0000   
         C         C         1.0       0.20681888334784576           0.49975333613837   0.21052501287246872          1.0000   
         C         C         1.0       0.20849691046214144           0.49383813465744747          0.15770314793376156          1.0000   
         C         C         1.0       0.24885574351737771           0.5638377682408533 0.2196770620857638 1.0000   
         C         C         1.0       0.24890732824754166           0.6385945238312664 0.12546252969776037          1.0000   
         C         C         1.0       0.22437548382907632           0.630098580908809  0.14561985912190295          1.0000   
         C         C         1.0       0.22408361684006647           0.6056901180751123 0.17340449354463505          1.0000   
         C         C         1.0       0.2486577184265333  0.5901235554462515  0.18230469181161785          1.0000   
         C         C         1.0       0.2720023879002433  0.5982858274466277  0.15701829323363328          1.0000   
         C         C         1.0       0.27247059236779386           0.6239590078958943 0.12970046355537712          1.0000   
         C         C         1.0       0.27474341156193377           0.5440364916485404 0.22990596928770063          1.0000   
         C         C         1.0       0.276618032216      0.530849849619664   0.2799329762851967 1.0000   
         C         C         1.0       0.29825485612381547           0.5150452001448365 0.2921876429545672 1.0000   
         C         C         1.0       0.3165477659172842  0.506958029213176   0.25566085015713486          1.0000   
         C         C         1.0       0.31432323057658096           0.5173361001985703 0.20540418151007314          1.0000   
         C         C         1.0       0.2942524426672543  0.5358825391816873  0.1920779295530401 1.0000   
         C         C         1.0       0.2677015462182709  0.5951474680511203  0.2985888780754879 1.0000   
         C         C         1.0       0.264793075490631   0.6112926838071775  0.34335854424707923          1.0000   
         C         C         1.0       0.24029578396156984           0.6122543781315424 0.36926044615075776          1.0000   
         C         C         1.0       0.218635154192001   0.5991397823991422  0.348553762806015  1.0000   
         C         C         1.0       0.22072031249552496           0.584663239755411  0.30161364622337633          1.0000   
         C         C         1.0       0.24583447688229743           0.5817081276586431 0.27553723209565933          1.0000   
         H         H         1.0       0.17639701847785874           0.49360762340391057          0.061643748136984255         1.0000   
         H         H         1.0       0.21488271566419842           0.4126401640259616 0.06795418294522837          1.0000   
         H         H         1.0       0.19882350255939804           0.4060073979419246 0.9847694543569895 1.0000   
         H         H         1.0       0.16094534546164718           0.484940372375907  0.9751839257726744 1.0000   
         H         H         1.0       0.2481525758765075  0.45646379254196934           0.21228689950263235          1.0000   
         H         H         1.0       0.2946299110817248  0.4389327768473584  0.2038143444466347 1.0000   
         H         H         1.0       0.2922277883784343  0.4476057437881322  0.0380721452546966 1.0000   
         H         H         1.0       0.2438374939729699  0.46581317755010243           0.04575608858892033          1.0000   
         H         H         1.0       0.22436237200047748           0.5089325918131529 0.08527632046729416          1.0000   
         H         H         1.0       0.23660154079722484           0.550899487391202  0.11481035071495128          1.0000   
         H         H         1.0       0.21231851220628625           0.5283621448261507 0.2775210235899589 1.0000   
         H         H         1.0       0.19892537087213433           0.4845134565790493 0.23759959726239066          1.0000   
         H         H         1.0       0.2067209332970974  0.6432734215609226  0.1471011063402698 1.0000   
         H         H         1.0       0.20589976180260883           0.5986083271339451 0.19248552711094272          1.0000   
         H         H         1.0       0.2904591082876559  0.5869979396570032  0.1663687099669092 1.0000   
         H         H         1.0       0.2918797649750987  0.6328043566521502  0.11787032286459964          1.0000   
         H         H         1.0       0.26233271786202056           0.5335384400979978 0.31407630654708657          1.0000   
         H         H         1.0       0.3001281904738599  0.5075806088019268  0.3329304668069415 1.0000   
         H         H         1.0       0.32995117672208035           0.5124866546762089 0.1780552184046665 1.0000   
         H         H         1.0       0.29435135660604506           0.5446283459877873 0.15180196350238134          1.0000   
         H         H         1.0       0.2871285123156052  0.5921093689980848  0.2819698647030687 1.0000   
         H         H         1.0       0.28380958966924835           0.6214942775826497 0.3573576894445068 1.0000   
         H         H         1.0       0.19834355819581762           0.5978423785608271 0.36678163289974874          1.0000   
         H         H         1.0       0.20245941367616183           0.5731574111573928 0.2861604599957967 1.0000   
         C         C         1.0       0.8809483235343474  0.7932234146599393  0.901393874916637  1.0000   
         C         C         1.0       0.8936896949246697  0.8178339293397424  0.9176176836262537 1.0000   
         C         C         1.0       0.9208236347601487  0.8194597886760364  0.9128629906873955 1.0000   
         C         C         1.0       0.9360913084777891  0.7967152290976113  0.894404995072132  1.0000   
         C         C         1.0       0.9215736285531246  0.7750505594324115  0.8731960871169981 1.0000   
         C         C         1.0       0.894706697922467   0.7728636561559526  0.8773143604882171 1.0000   
         H         H         1.0       0.881112839599801   0.83471184315064    0.929793147187316  1.0000   
         H         H         1.0       0.9303321344783299  0.8380577247551725  0.9287636740133531 1.0000   
         H         H         1.0       0.9330623149861859  0.7584484425204199  0.8552284316897083 1.0000   
         H         H         1.0       0.8856684500669216  0.7564613289227674  0.856026511122927  1.0000   
         C         C         1.0       0.9695387582556748  0.7480837774459771  0.9258064216483305 1.0000   
         C         C         1.0       0.9807046203623989  0.7683453910314059  0.8969568986683241 1.0000   
         C         C         1.0       0.005148566588099479          0.7635418149594964 0.8728194001344561 1.0000   
         C         C         1.0       0.019084630990082507          0.7381932973461556 0.8813114158725301 1.0000   
         C         C         1.0       0.006778863582464156          0.7180875828102912 0.9100122512996573 1.0000   
         C         C         1.0       0.982033849719817   0.7226577652330092  0.9340674934027456 1.0000   
         C         C         1.0       0.968950416740143   0.7972578567367093  0.8928329429192008 1.0000   
         C         C         1.0       0.9833543587450237  0.8124107336639662  0.9409505790029976 1.0000   
         C         C         1.0       0.004795327544918404          0.8289511505037865 0.9353442451657914 1.0000   
         C         C         1.0       0.016750778089592577          0.8412491292062289 0.9816728318779551 1.0000   
         C         C         1.0       0.004123092859427802          0.8391948458526489 0.031082845089637434         1.0000   
         C         C         1.0       0.9827834362825401  0.822085415725373   0.035235800147924934         1.0000   
         C         C         1.0       0.9734289639974175  0.807855817912599   0.9905564411765467 1.0000   
         C         C         1.0       0.967068490438363   0.7980076904574182  0.7864984328671343 1.0000   
         C         C         1.0       0.9588496140016066  0.8113120481730521  0.7403569615117063 1.0000   
         C         C         1.0       0.9555236698083178  0.8391081540464275  0.7378315818975784 1.0000   
         C         C         1.0       0.9636105891248116  0.8533201729481785  0.7837075339994182 1.0000   
         C         C         1.0       0.9700302137934055  0.8400129073356903  0.8312881480449944 1.0000   
         C         C         1.0       0.9694314397778891  0.8119944843206355  0.8334522726605055 1.0000   
         C         C         1.0       0.9482167156040533  0.8522998004375104  0.6831976637982293 1.0000   
         C         C         1.0       0.024968866985690674          0.8608683495462546 0.6009101447405958 1.0000   
         C         C         1.0       0.008129915877599814          0.8405850000638542 0.5891235727955102 1.0000   
         C         C         1.0       0.985762230099978   0.8357153315462142  0.616363818026198  1.0000   
         C         C         1.0       0.9771151762869031  0.8538165295159186  0.65514273232142   1.0000   
         C         C         1.0       0.9955851770489982  0.8735310132273283  0.6706007350250544 1.0000   
         C         C         1.0       0.018405002930358183          0.8777572437481718 0.6434064758255702 1.0000   
         C         C         1.0       0.9321672198596168  0.8803113159883238  0.6880818707087862 1.0000   
         C         C         1.0       0.9107651643372396  0.8834453733056444  0.7234597855776145 1.0000   
         C         C         1.0       0.9015371638588278  0.9092476871866123  0.7365093285302455 1.0000   
         C         C         1.0       0.9143408448672187  0.9321735818088851  0.7147540621819439 1.0000   
         C         C         1.0       0.9318051972016912  0.9293383972275092  0.6744643701346156 1.0000   
         C         C         1.0       0.9410535647942663  0.9032100642407362  0.661365556858882  1.0000   
         C         C         1.0       0.9214430909329608  0.8389344597369497  0.5932968083405898 1.0000   
         C         C         1.0       0.902607906093427   0.8251899621891553  0.56455680871658   1.0000   
         C         C         1.0       0.8854237516357959  0.8076701632837553  0.5897275624198376 1.0000   
         C         C         1.0       0.8851045094732355  0.8060508120443154  0.644558142306283  1.0000   
         C         C         1.0       0.9037647044799221  0.8214772189157944  0.6741015800937903 1.0000   
         C         C         1.0       0.9237371309636562  0.8372805402072081  0.649019436390083  1.0000   
         H         H         1.0       0.9504320315708921  0.7514573963482384  0.9482510637185826 1.0000   
         H         H         1.0       0.0151135552792232  0.7777444757977222  0.8440607574605182 1.0000   
         H         H         1.0       0.03873332224999659           0.7355437584519978 0.8619943363008312 1.0000   
         H         H         1.0       0.9736001112926386  0.7066626202108743  0.9544535148320794 1.0000   
         H         H         1.0       0.013045624601099925          0.8300323530174487 0.8958394321501326 1.0000   
         H         H         1.0       0.03277317055809381           0.8557527770289568 0.9791776967204617 1.0000   
         H         H         1.0       0.9706859339332453  0.8218459634937806  0.07254866876595956          1.0000   
         H         H         1.0       0.9538679702972945  0.7968321258482398  0.9918400820346548 1.0000   
         H         H         1.0       0.9708907245442352  0.7768095048345599  0.7937745845146447 1.0000   
         H         H         1.0       0.9537495593750899  0.7997749032467266  0.7058165898372114 1.0000   
         H         H         1.0       0.962144386830843   0.8743154120374607  0.784422567010892  1.0000   
         H         H         1.0       0.971083770490397   0.85252728976078    0.8645352920596947 1.0000   
         H         H         1.0       0.012310973350576626          0.8283059384484299 0.5528293707602326 1.0000   
         H         H         1.0       0.9748468191312332  0.816920319238391   0.6043923781088807 1.0000   
         H         H         1.0       0.9905201141352437  0.8887195092173951  0.6980863256435729 1.0000   
         H         H         1.0       0.03247218479219316           0.8927722297373025 0.6557985659435349 1.0000   
         H         H         1.0       0.905267981379494   0.866980129336958   0.749134362448122  1.0000   
         H         H         1.0       0.8853323896653217  0.9131544589123128  0.7636824927898501 1.0000   
         H         H         1.0       0.9392905561164216  0.9473341172931552  0.6576006401800181 1.0000   
         H         H         1.0       0.9564841405919726  0.9020890111577881  0.6322802113829472 1.0000   
         H         H         1.0       0.9359273200499362  0.8512506783757225  0.573571463000675  1.0000   
         H         H         1.0       0.8993526421158138  0.8302007785500818  0.5205172538503289 1.0000   
         H         H         1.0       0.8671083398081743  0.7986422801923309  0.6634244670972846 1.0000   
         H         H         1.0       0.9027446784778121  0.8209437856818472  0.717911699670714  1.0000   
         C         C         1.0       0.553995083076744   0.8578157420124186  0.8306836751137104 1.0000   
         C         C         1.0       0.557299356846748   0.8848952450955934  0.8432306999632825 1.0000   
         C         C         1.0       0.5799266046400063  0.8938318613257452  0.8700201171546394 1.0000   
         C         C         1.0       0.6000786719110545  0.8752397459694393  0.8845679150317879 1.0000   
         C         C         1.0       0.5966732975486548  0.8482645577439654  0.8747424811302633 1.0000   
         C         C         1.0       0.5739632394821707  0.8396878828890986  0.8470642669517601 1.0000   
         H         H         1.0       0.5398502400447488  0.8982798752601511  0.8362543908664845 1.0000   
         H         H         1.0       0.5822973013331489  0.9146527446945936  0.8804276226533494 1.0000   
         H         H         1.0       0.6118833729990866  0.8336440849556338  0.8910201416503372 1.0000   
         H         H         1.0       0.5737094290486984  0.819032898505895   0.8376468180153039 1.0000   
         C         C         1.0       0.593262167331978   0.8900708497114571  0.0005854248798873307        1.0000   
         C         C         1.0       0.6131563788271052  0.8738938481403979  0.9776469157387592 1.0000   
         C         C         1.0       0.618873448496908   0.8487986035255334  0.9985658548129747 1.0000   
         C         C         1.0       0.6071660113540125  0.8423018528935299  0.046412009499314566         1.0000   
         C         C         1.0       0.5871660022180175  0.8578797107675219  0.06966293824523806          1.0000   
         C         C         1.0       0.5802196008673194  0.8822804906652871  0.04575868118483073          1.0000   
         C         C         1.0       0.6266180256844475  0.8818305899172391  0.9206681216917165 1.0000   
         C         C         1.0       0.6371173863861348  0.9123987591693105  0.9249418026290016 1.0000   
         C         C         1.0       0.6358128873716219  0.9273742006742586  0.8791115342731451 1.0000   
         C         C         1.0       0.6458426725682817  0.9530152605212417  0.8748025630544477 1.0000   
         C         C         1.0       0.6535905249488294  0.9661434765150143  0.9220517192285059 1.0000   
         C         C         1.0       0.6548578776986839  0.9526371335010142  0.9694903964478444 1.0000   
         C         C         1.0       0.648218309155173   0.9251330635765495  0.9698709947000828 1.0000   
         C         C         1.0       0.6775526555335799  0.8657222684325581  0.9399001241409954 1.0000   
         C         C         1.0       0.7032562480475603  0.8613556275283492  0.9198254771274549 1.0000   
         C         C         1.0       0.7087942951099415  0.858783015764022   0.8645816051059477 1.0000   
         C         C         1.0       0.6864672438035881  0.8588961234279948  0.830776949107536  1.0000   
         C         C         1.0       0.6607703293533185  0.8624085618976656  0.8512446416440099 1.0000   
         C         C         1.0       0.6554074298724725  0.8665604015892644  0.9041717595062428 1.0000   
         C         C         1.0       0.7390989552109324  0.8596893439322009  0.8396136115612269 1.0000   
         C         C         1.0       0.8062874180469464  0.8190687436961959  0.9181215756462965 1.0000   
         C         C         1.0       0.8097591826182333  0.8433700959127997  0.8920970456089663 1.0000   
         C         C         1.0       0.7880196310902248  0.8571761149481415  0.8701043099640756 1.0000   
         C         C         1.0       0.7616379012145996  0.8465572844616864  0.8755924820107678 1.0000   
         C         C         1.0       0.7588953835662954  0.8225801323034828  0.9033247953268407 1.0000   
         C         C         1.0       0.7812336396293068  0.8083305858364653  0.9220968746377252 1.0000   
         C         C         1.0       0.7395104573343055  0.8919014853445142  0.8246909858198345 1.0000   
         C         C         1.0       0.7289999778498478  0.9015854337209556  0.7757749422796293 1.0000   
         C         C         1.0       0.7347268763212523  0.9265495812834282  0.7581358854314335 1.0000   
         C         C         1.0       0.7475097103781556  0.9446432993622179  0.7903504070141258 1.0000   
         C         C         1.0       0.7555299848714264  0.9374898768284372  0.8411218145695634 1.0000   
         C         C         1.0       0.7496431266696401  0.9114771100149315  0.8609265181535695 1.0000   
         C         C         1.0       0.7605117284715769  0.847643976192502   0.7496671235779417 1.0000   
         C         C         1.0       0.7668242800904194  0.8316518160407957  0.708245300961156  1.0000   
         C         C         1.0       0.7557341116466527  0.8061736008765673  0.7041452983164235 1.0000   
         C         C         1.0       0.7370895273175498  0.7977589483571461  0.7410928835167189 1.0000   
         C         C         1.0       0.7298352617335593  0.8143667874023139  0.7833593642284076 1.0000   
         C         C         1.0       0.7422372653609318  0.839940812642728   0.7895827094695755 1.0000   
         H         H         1.0       0.5874321608097102  0.908364914916206   0.9802647395429023 1.0000   
         H         H         1.0       0.6326456652570714  0.8344038713450223  0.9808923416516102 1.0000   
         H         H         1.0       0.6126921154354376  0.8224909945014746  0.06336756377523445          1.0000   
         H         H         1.0       0.56462420804411    0.8960024818873402  0.058122100935603216         1.0000   
         H         H         1.0       0.6306222673044586  0.9174184668637195  0.8425285677997391 1.0000   
         H         H         1.0       0.6476393965760996  0.9636644327026243  0.8390165379740346 1.0000   
         H         H         1.0       0.6584719704551326  0.9625302496932381  0.006659233059316927         1.0000   
         H         H         1.0       0.6507867448127571  0.9150303451834729  0.006369154874503957         1.0000   
         H         H         1.0       0.6720169894759775  0.8678096068965883  0.9841430899847953 1.0000   
         H         H         1.0       0.720317872516351   0.8617056641993045  0.9469975231319457 1.0000   
         H         H         1.0       0.6866818718705894  0.8618653549715446  0.7879109627776613 1.0000   
         H         H         1.0       0.6455701234382928  0.865109843564035   0.8203377725411394 1.0000   
         H         H         1.0       0.8302936187415123  0.8504998195706414  0.8885367007274879 1.0000   
         H         H         1.0       0.790664464833181   0.8756695623052977  0.8468515594780464 1.0000   
         H         H         1.0       0.7393514585805876  0.8144464020917642  0.9098407013959204 1.0000   
         H         H         1.0       0.7773711076097294  0.7907835516483905  0.9454727439029552 1.0000   
         H         H         1.0       0.7216721564895082  0.8862788756669939  0.7449390754914641 1.0000   
         H         H         1.0       0.7309561593637557  0.9289848224242648  0.7183988160671065 1.0000   
         H         H         1.0       0.7655444785092954  0.9521332245514044  0.8643389035308956 1.0000   
         H         H         1.0       0.7515168569178838  0.9057304400824767  0.9017838641896705 1.0000   
         H         H         1.0       0.7693901101846004  0.8678766475658625  0.7473607863821576 1.0000   
         H         H         1.0       0.7823996589926601  0.8390186041948173  0.6820737409713122 1.0000   
         H         H         1.0       0.7265627609247409  0.7787839901700002  0.7328610845270825 1.0000   
         H         H         1.0       0.7111810144456314  0.8064945877537926  0.8025875921345252 1.0000   
         C         C         1.0       0.611080950852779   0.15194053788457618           0.6877741643643898 1.0000   
         C         C         1.0       0.6225956972355943  0.14969023290543423           0.6378642943049231 1.0000   
         C         C         1.0       0.6082002837486461  0.15598630960053317           0.5929333379918273 1.0000   
         C         C         1.0       0.5810978912672988  0.1635608811566381  0.5953830936835341 1.0000   
         C         C         1.0       0.5695339228583315  0.16442897360727507           0.6455657049072397 1.0000   
         C         C         1.0       0.5850459505098312  0.16006725225128277           0.6910135367643104 1.0000   
         H         H         1.0       0.6437064547605335  0.14563237246915633           0.632655886030912  1.0000   
         H         H         1.0       0.6171554630324761  0.15478434875268177           0.5548464932291994 1.0000   
         H         H         1.0       0.5490685634155295  0.17351820853952224           0.6493227326956992 1.0000   
         H         H         1.0       0.5759943164896557  0.16121022849662528           0.728686386584684  1.0000   
         C         C         1.0       0.5249210150078826  0.13841980570180223           0.5572169354138621 1.0000   
         C         C         1.0       0.5327431151872041  0.16603742205115488           0.5498759915625462 1.0000   
         C         C         1.0       0.5121934524449961  0.18386915832236359           0.5323668710206518 1.0000   
         C         C         1.0       0.4848175271576442  0.17621377159120896           0.537524114000833  1.0000   
         C         C         1.0       0.47719033323776405           0.1497396864441946 0.5528211477757231 1.0000   
         C         C         1.0       0.49817915570008314           0.1315659457067862 0.5580708417131429 1.0000   
         C         C         1.0       0.5644214908088905  0.17204002229502827           0.5431954488543851 1.0000   
         C         C         1.0       0.5718186243152971  0.15857679557208013           0.4877895262561698 1.0000   
         C         C         1.0       0.5637576222726061  0.17189379002751373           0.44185781022690224          1.0000   
         C         C         1.0       0.5682180907392358  0.16245923209446353           0.3908763027438749 1.0000   
         C         C         1.0       0.584136224968904   0.1390063791902466  0.3862156717049249 1.0000   
         C         C         1.0       0.5907333972322997  0.12359223030438969           0.43110037242408056          1.0000   
         C         C         1.0       0.5821040061831254  0.13201630425112912           0.4812878371932264 1.0000   
         C         C         1.0       0.5616651726679774  0.2241434312128263  0.5713459661896279 1.0000   
         C         C         1.0       0.5749772389428703  0.24747133766848664           0.5833946294603524 1.0000   
         C         C         1.0       0.5998301997145935  0.2533153898726399  0.5647793068558065 1.0000   
         C         C         1.0       0.6107579262048665  0.23339402759635713           0.5314253799529515 1.0000   
         C         C         1.0       0.5976363027260237  0.21018736536315324           0.5175192674378264 1.0000   
         C         C         1.0       0.5740909190046858  0.20284327860443147           0.5432349097488652 1.0000   
         C         C         1.0       0.6185505990582185  0.27644056395513056           0.5886114256059474 1.0000   
         C         C         1.0       0.5941243828491422  0.3604619185146834  0.5647044204933611 1.0000   
         C         C         1.0       0.5804574749174604  0.34036506366821395           0.5366210393053905 1.0000   
         C         C         1.0       0.5893247881183062  0.3143316474309352  0.5436589285575476 1.0000   
         C         C         1.0       0.6077915340947484  0.3066787460728443  0.5832250482074228 1.0000   
         C         C         1.0       0.6205679911585965  0.3272671204380999  0.608294964104006  1.0000   
         C         C         1.0       0.6149385491474074  0.3533631143312128  0.6009417213438094 1.0000   
         C         C         1.0       0.6487456862335114  0.27867255854503836           0.5657687051241101 1.0000   
         C         C         1.0       0.6510762553956617  0.28197063592814714           0.5085404966058825 1.0000   
         C         C         1.0       0.6757822971091648  0.289459820360663   0.48679289187356256          1.0000   
         C         C         1.0       0.6980599297245209  0.2913557403100759  0.5188189155846316 1.0000   
         C         C         1.0       0.6980196537765662  0.28538582871158724           0.5721658112885092 1.0000   
         C         C         1.0       0.6727322463602126  0.28054796143497385           0.5947012526673671 1.0000   
         C         C         1.0       0.602936506356028   0.28054082591309704           0.6897400817059173 1.0000   
         C         C         1.0       0.6022770777215836  0.27017007429139184           0.7416158010219877 1.0000   
         C         C         1.0       0.6170384135867192  0.24770788970703872           0.7554548839990125 1.0000   
         C         C         1.0       0.6285163690444848  0.23304944457124996           0.7158255594065132 1.0000   
         C         C         1.0       0.6316406456993247  0.24300136609915102           0.6661171097315802 1.0000   
         C         C         1.0       0.618744109931434   0.26748044303635515           0.6514809562490691 1.0000   
         H         H         1.0       0.5402903089934288  0.1232139417360084  0.5642529257657818 1.0000   
         H         H         1.0       0.5167382680562491  0.20366483930064427           0.5139672011370328 1.0000   
         H         H         1.0       0.47022995824478825           0.19186456606682387          0.5318577818029505 1.0000   
         H         H         1.0       0.49416851813176077           0.11106571852639056          0.5688370392845663 1.0000   
         H         H         1.0       0.5541504511472294  0.1923030219562076  0.4454759973873953 1.0000   
         H         H         1.0       0.5606906674784771  0.17411057141681535           0.35783855251654106          1.0000   
         H         H         1.0       0.5987283896916948  0.10290760848414604           0.42551639781407496          1.0000   
         H         H         1.0       0.583786696450507   0.1188638997695258  0.5137303672683597 1.0000   
         H         H         1.0       0.5418172699245666  0.22056727970558235           0.5965173206339351 1.0000   
         H         H         1.0       0.5668442569504226  0.25868992401076146           0.6147888283718039 1.0000   
         H         H         1.0       0.6305153944934672  0.23632182155738807           0.5148993058960978 1.0000   
         H         H         1.0       0.6103451334631873  0.19564543510171595           0.494592429003526  1.0000   
         H         H         1.0       0.5613963893816465  0.343712733067856   0.5165656876983062 1.0000   
         H         H         1.0       0.5776815282477469  0.299950662314516   0.5195631248759373 1.0000   
         H         H         1.0       0.6361714724441898  0.32459621059167487           0.6382686065367906 1.0000   
         H         H         1.0       0.6239672462771947  0.36876931335562585           0.6259686359033532 1.0000   
         H         H         1.0       0.6334466732119646  0.2812335832011958  0.48258462342323094          1.0000   
         H         H         1.0       0.6764949955187082  0.2949219036537587  0.4431756591036877 1.0000   
         H         H         1.0       0.7162665120716805  0.2866499630509075  0.5969114884212419 1.0000   
         H         H         1.0       0.6721939494961027  0.27980927080098306           0.6381730755458556 1.0000   
         H         H         1.0       0.5929357729921472  0.2994755867169945  0.6783149785406384 1.0000   
         H         H         1.0       0.588820139839545   0.2800729320035871  0.7717456939011655 1.0000   
         H         H         1.0       0.6375607884522438  0.21415583167963925           0.7289147702971251 1.0000   
         H         H         1.0       0.6433858589265835  0.2326356810404215  0.6390501561066523 1.0000   
         C         C         1.0       0.5745960980396495  0.9167844124491661  0.3792339513893453 1.0000   
         C         C         1.0       0.5837521705162575  0.9383251349532605  0.3489461736425197 1.0000   
         C         C         1.0       0.5958116892615849  0.9600054866607001  0.37194425554805   1.0000   
         C         C         1.0       0.5952370916055741  0.9648141105069369  0.4255694442451906 1.0000   
         C         C         1.0       0.5844803041231478  0.9440214117097712  0.4568533071054958 1.0000   
         C         C         1.0       0.5734633520738407  0.9208740688024786  0.43425969846247237          1.0000   
         H         H         1.0       0.579080341670221   0.9374342677137334  0.307255161579788  1.0000   
         H         H         1.0       0.6014731481575541  0.9761360112396419  0.34528112390803645          1.0000   
         H         H         1.0       0.5803135253193423  0.9479361962113322  0.4975129887141703 1.0000   
         H         H         1.0       0.560944796871371   0.9092308664349099  0.4604088745756221 1.0000   
         C         C         1.0       0.5571594846498729  0.010626987971568802         0.4462295058230772 1.0000   
         C         C         1.0       0.5833735951052021  0.013333407591811897         0.428949059717383  1.0000   
         C         C         1.0       0.5890202601464725  0.03345457000788099           0.39208038984393956          1.0000   
         C         C         1.0       0.5691502794841066  0.05281447041547538           0.378933603188197  1.0000   
         C         C         1.0       0.5439815286519336  0.052791817339148395         0.4046465867839041 1.0000   
         C         C         1.0       0.5369249352317785  0.030132227792616373         0.4326736909255333 1.0000   
         C         C         1.0       0.6052742080130208  0.9921116860246083  0.45016431846220295          1.0000   
         C         C         1.0       0.6371676097582107  0.9969254925024967  0.4373665699999691 1.0000   
         C         C         1.0       0.6495321043609404  0.022569474425861324         0.4469508842799691 1.0000   
         C         C         1.0       0.6770892307833081  0.025103082130771615         0.44739528247912946          1.0000   
         C         C         1.0       0.6925884412221571  0.0025769156102481983        0.4407701346749592 1.0000   
         C         C         1.0       0.6808450770270341  0.9792438800582242  0.42079385258805746          1.0000   
         C         C         1.0       0.6538741134638899  0.976026481030409   0.42257934093024296          1.0000   
         C         C         1.0       0.6017432393098338  0.019549630469543722         0.5377659163143081 1.0000   
         C         C         1.0       0.6055052666062122  0.023719931057425203         0.5936317858819522 1.0000   
         C         C         1.0       0.6215727848563264  0.006497121866716915         0.6242382685584712 1.0000   
         C         C         1.0       0.6276640417424029  0.9820716418795137  0.6003177024730904 1.0000   
         C         C         1.0       0.6220488412412936  0.9760873628422876  0.5457259844700368 1.0000   
         C         C         1.0       0.6075983868460038  0.9952540241130763  0.5141466461877291 1.0000   
         C         C         1.0       0.6294743619327019  0.014032397302788047         0.6835249170095637 1.0000   
         C         C         1.0       0.6452707744454755  0.09998955810219212           0.723654347816048  1.0000   
         C         C         1.0       0.6327624013909845  0.08336439632817694           0.759680434720027  1.0000   
         C         C         1.0       0.6257277953282965  0.057652722980846116         0.7436356747270007 1.0000   
         C         C         1.0       0.6335055223537305  0.04596065565380503           0.6956155017448614 1.0000   
         C         C         1.0       0.6459000918479108  0.06303236647493038           0.6594510295940106 1.0000   
         C         C         1.0       0.6513715844040364  0.0898572768437198  0.6741426662169594 1.0000   
         C         C         1.0       0.6585559908885869  0.003980510758449851         0.7019276938274177 1.0000   
         C         C         1.0       0.6825374289411494  0.004807742386123692         0.6708450913325126 1.0000   
         C         C         1.0       0.7076422389625645  0.00019160383828076277       0.692339469412879  1.0000   
         C         C         1.0       0.7105411204183482  0.9948195468728146  0.7459543702385137 1.0000   
         C         C         1.0       0.6874214022471734  0.9959950404449374  0.7770581063518598 1.0000   
         C         C         1.0       0.6623662465171142  0.9993024832196005  0.7546982748272401 1.0000   
         C         C         1.0       0.6034568945169515  0.973178746783084   0.7297144102030308 1.0000   
         C         C         1.0       0.5805167268344822  0.9625027396057851  0.7505188382851772 1.0000   
         C         C         1.0       0.5566950576785815  0.9771309155461164  0.7556232907557752 1.0000   
         C         C         1.0       0.5548370960083573  0.0023318726346257534        0.7368829540263273 1.0000   
         C         C         1.0       0.5778681882003496  0.014471830542493791         0.7152049930796551 1.0000   
         C         C         1.0       0.6027935574009865  0.0002230866315959812        0.710576118853861  1.0000   
         H         H         1.0       0.5543962062226732  0.9972181269176302  0.47877354325912735          1.0000   
         H         H         1.0       0.6068700052708752  0.03222397049206194           0.36914577263234233          1.0000   
         H         H         1.0       0.5722416795591657  0.06838333730739166           0.3511113203049969 1.0000   
         H         H         1.0       0.5151108116172587  0.02949150410888235           0.442487364735618  1.0000   
         H         H         1.0       0.6371813210622407  0.04038128438083266           0.45563875564862233          1.0000   
         H         H         1.0       0.6861602287017683  0.04416601502811823           0.45707136253532904          1.0000   
         H         H         1.0       0.6936046561953451  0.9625235656589057  0.4064658076923651 1.0000   
         H         H         1.0       0.6461155658331049  0.9558947337339991  0.4158588138999025 1.0000   
         H         H         1.0       0.59111289059966    0.03603680461563852           0.5183837078405632 1.0000   
         H         H         1.0       0.5964210843961997  0.04114838493306627           0.6115874067140201 1.0000   
         H         H         1.0       0.6406256653359319  0.9681791339521567  0.6197716873738213 1.0000   
         H         H         1.0       0.6284554510247227  0.95641559415712    0.5259577957717371 1.0000   
         H         H         1.0       0.6299668723765568  0.0907279097016056  0.8002651482109125 1.0000   
         H         H         1.0       0.6148301342078256  0.044701871464303045         0.7709079901125896 1.0000   
         H         H         1.0       0.651500777778466   0.05753475149828002           0.6190304184933536 1.0000   
         H         H         1.0       0.6597966778007042  0.10264712936269382           0.6455389250557689 1.0000   
         H         H         1.0       0.6819525105062266  0.012810552272648268         0.6321022428580104 1.0000   
         H         H         1.0       0.7249127597766634  0.0029068493844335297        0.6674304099383489 1.0000   
         H         H         1.0       0.6898733606951462  0.9899236857584377  0.8187807860293964 1.0000   
         H         H         1.0       0.6480245481949514  0.9999509648271782  0.7833262484819112 1.0000   
         H         H         1.0       0.6210713164056051  0.9606800751241387  0.7310608118779471 1.0000   
         H         H         1.0       0.581667678076909   0.9423617680582012  0.7647823066857946 1.0000   
         H         H         1.0       0.5372775025911182  0.01326165001196844           0.7388379893624493 1.0000   
         H         H         1.0       0.5742569006485023  0.03437264074162938           0.695352902746982  1.0000   
         C         C         1.0       0.23007425074996649           0.3407584475746467 0.6380194974900407 1.0000   
         C         C         1.0       0.24978433969444194           0.3462402858540175 0.6745189118365753 1.0000   
         C         C         1.0       0.2768679972846107  0.3479729213723615  0.6563214474808525 1.0000   
         C         C         1.0       0.2831088373107384  0.34918020360051855           0.6038335294187404 1.0000   
         C         C         1.0       0.26159507809863886           0.34161446639081383          0.5671436462993599 1.0000   
         C         C         1.0       0.23596831200417104           0.33875800429350533          0.5836331667126614 1.0000   
         H         H         1.0       0.2448616961871732  0.3481906947529351  0.7155620476788103 1.0000   
         H         H         1.0       0.29338360633187344           0.3510188088861566 0.6853793020728662 1.0000   
         H         H         1.0       0.2655495565998699  0.3366712257356912  0.5261629633291814 1.0000   
         H         H         1.0       0.2180100859310224  0.33712475224404365           0.5547213023619275 1.0000   
         C         C         1.0       0.32389284552821934           0.3017302697512749 0.5831962274904106 1.0000   
         C         C         1.0       0.3285029956898919  0.32521037908814326           0.6092091069921006 1.0000   
         C         C         1.0       0.3401897413026324  0.3231805772614738  0.660523081102468  1.0000   
         C         C         1.0       0.34825073024426745           0.29731587292199413          0.6823468592207438 1.0000   
         C         C         1.0       0.34259561875702993           0.2740366864516838 0.6527598892309611 1.0000   
         C         C         1.0       0.3305912878621069  0.2766352761999629  0.6048614594158979 1.0000   
         C         C         1.0       0.3143776421374453  0.3527117450429595  0.5906531334983474 1.0000   
         C         C         1.0       0.32649029738993973           0.3791187889338409 0.612813691551275  1.0000   
         C         C         1.0       0.35349583693897146           0.38171529053269987          0.6090916617149332 1.0000   
         C         C         1.0       0.3662639522635758  0.40477974611699225           0.6261860686818391 1.0000   
         C         C         1.0       0.351416677950781   0.42710187807612787           0.6416460532939091 1.0000   
         C         C         1.0       0.32349586067612507           0.42483923585172867          0.6489339210825776 1.0000   
         C         C         1.0       0.3111578012738005  0.40108332894150395           0.635674690533427  1.0000   
         C         C         1.0       0.3358349488388172  0.34911187173453917           0.49535318245461013          1.0000   
         C         C         1.0       0.33550522589659343           0.3530764709354063 0.43951732610946515          1.0000   
         C         C         1.0       0.3140422077523231  0.36642470691148626           0.41630905994064304          1.0000   
         C         C         1.0       0.2994410096725763  0.3847366733542751  0.4491439941165613 1.0000   
         C         C         1.0       0.3036966554032742  0.3825512560502714  0.5043281555768099 1.0000   
         C         C         1.0       0.31729393307133774           0.36140981068187855          0.5270785105596882 1.0000   
         C         C         1.0       0.3068944050350859  0.3635630391886854  0.3533170680308644 1.0000   
         C         C         1.0       0.3187239399638575  0.28583210007138365           0.26675101128776596          1.0000   
         C         C         1.0       0.3170154384483939  0.31066101677110414           0.24114322186197953          1.0000   
         C         C         1.0       0.3193632348945338  0.33407824941467046           0.2689181181161577 1.0000   
         C         C         1.0       0.3162350920257361  0.3352314523472534  0.32457712451917836          1.0000   
         C         C         1.0       0.31586388563298273           0.30966193631586675          0.3496154667399072 1.0000   
         C         C         1.0       0.3177296997639435  0.28570964816882505           0.32147411050469876          1.0000   
         C         C         1.0       0.32008202713042994           0.3901283022767474 0.33033068871999777          1.0000   
         C         C         1.0       0.3056106425040879  0.4152593858443154  0.3323779461056854 1.0000   
         C         C         1.0       0.31536688967851295           0.43850836453501857          0.3105563796362398 1.0000   
         C         C         1.0       0.3409565142404321  0.43875892109054465           0.2885185602971492 1.0000   
         C         C         1.0       0.35585675085550716           0.4153773316912404 0.2917358827298953 1.0000   
         C         C         1.0       0.3461762782021922  0.3919326782513909  0.3148598027156156 1.0000   
         C         C         1.0       0.2632389095033615  0.36578040535097617           0.2900848997953834 1.0000   
         C         C         1.0       0.2381246567392414  0.35568976102753436           0.2788317871418509 1.0000   
         C         C         1.0       0.22436919257698998           0.3393767284619215 0.3137364474583963 1.0000   
         C         C         1.0       0.23629309971863502           0.3325616398970645 0.36209684745564985          1.0000   
         C         C         1.0       0.2606023562031408  0.343147174431555   0.3745217394654776 1.0000   
         C         C         1.0       0.27533910688852714           0.35971551948941877          0.33954546596515134          1.0000   
         H         H         1.0       0.3120201678342131  0.30218461384195383           0.547713689633514  1.0000   
         H         H         1.0       0.34442165601600955           0.3403698680497202 0.6859944283988227 1.0000   
         H         H         1.0       0.35877446428176313           0.2960336192509525 0.7197966407034356 1.0000   
         H         H         1.0       0.32779951162141835           0.25784948836283056          0.5822927950659338 1.0000   
         H         H         1.0       0.36684725525298095           0.36663272291807547          0.5880206237136882 1.0000   
         H         H         1.0       0.3876627068706972  0.40658013929641507           0.6239673460922859 1.0000   
         H         H         1.0       0.31381308209416237           0.441004973470861  0.6728569066181083 1.0000   
         H         H         1.0       0.2885686369337167  0.3992729853359336  0.6398107417640082 1.0000   
         H         H         1.0       0.3520628744843849  0.33737450616551307           0.5090412431371284 1.0000   
         H         H         1.0       0.3502572255092199  0.3430684568667336  0.41485217640103367          1.0000   
         H         H         1.0       0.28512943170439586           0.39860364168749796          0.43062189901291376          1.0000   
         H         H         1.0       0.29261849353183483           0.39606290812111145          0.5290606139553756 1.0000   
         H         H         1.0       0.31446232240361693           0.3103740991872909 0.19843708724115006          1.0000   
         H         H         1.0       0.31789670939811476           0.3522241664078665 0.2453883153957614 1.0000   
         H         H         1.0       0.3122334552220678  0.30835853161575416           0.39208141482751524          1.0000   
         H         H         1.0       0.32283611819313496           0.26705215932402815          0.34584181617310444          1.0000   
         H         H         1.0       0.28384767966740926           0.41316160439198585          0.34479110418503883          1.0000   
         H         H         1.0       0.3031285029931843  0.4558252536617555  0.3094014550266442 1.0000   
         H         H         1.0       0.3761298032505729  0.4145494277747581  0.27820657706212015          1.0000   
         H         H         1.0       0.358151057727306   0.3735150845846511  0.3176340907702641 1.0000   
         H         H         1.0       0.27363833824574246           0.3771588565370183 0.25756467078357526          1.0000   
         H         H         1.0       0.23013202032312577           0.35897305400012736          0.2386107079797758 1.0000   
         H         H         1.0       0.22371855505770827           0.3184158291311791 0.3875975320348099 1.0000   
         H         H         1.0       0.2714929063729742  0.3388456372814139  0.41451156216261514          1.0000   
         C         C         1.0       0.36284748112929793           0.24069171669042   0.2512373702181333 1.0000   
         C         C         1.0       0.3806881452381006  0.2603358185999493  0.26633243820870955          1.0000   
         C         C         1.0       0.39743903165764677           0.2568256698003878 0.30985993952751845          1.0000   
         C         C         1.0       0.39883026360236873           0.23147909575998468          0.3336506242909796 1.0000   
         C         C         1.0       0.3802060261974179  0.2113063909342787  0.31891401369201067          1.0000   
         C         C         1.0       0.36118574695969285           0.2171763306152757 0.2814364081731167 1.0000   
         H         H         1.0       0.3791814800568102  0.2788817322214111  0.2440213508394267 1.0000   
         H         H         1.0       0.4128563215740296  0.27139641425614114           0.32132548756328566          1.0000   
         H         H         1.0       0.3797794875172755  0.19199591121090415           0.33456032831086524          1.0000   
         H         H         1.0       0.34616526495289457           0.2021527671817588 0.2705941976897469 1.0000   
         C         C         1.0       0.4017041794559997  0.18489273055011068           0.4367198953163288 1.0000   
         C         C         1.0       0.42325619597363995           0.1952596562755132 0.4043419593253727 1.0000   
         C         C         1.0       0.4462841851974901  0.1791864663661747  0.40100009263696595          1.0000   
         C         C         1.0       0.4487008304800258  0.15401390904594545           0.4258183706673742 1.0000   
         C         C         1.0       0.43007375647446205           0.1472312364686989 0.4645065022340025 1.0000   
         C         C         1.0       0.4053927430704392  0.16138179235660455           0.4669289251253288 1.0000   
         C         C         1.0       0.42164721103216646           0.22600853977607946          0.3799631495810793 1.0000   
         C         C         1.0       0.41459071669679903           0.24632610267872607          0.4328196139839316 1.0000   
         C         C         1.0       0.43323478234058127           0.24570414163192095          0.4758964925257114 1.0000   
         C         C         1.0       0.4274191075312735  0.26059827036592875           0.5210857204876642 1.0000   
         C         C         1.0       0.4029408116869374  0.2756356080512223  0.5244063933290732 1.0000   
         C         C         1.0       0.3845991865749801  0.275926060020768   0.4819626309139087 1.0000   
         C         C         1.0       0.3898982778329465  0.26006020906706057           0.4383097956990395 1.0000   
         C         C         1.0       0.4574311041502161  0.22018811563263774           0.30558132958933054          1.0000   
         C         C         1.0       0.4775758061883796  0.23041748137145335           0.2752338481283037 1.0000   
         C         C         1.0       0.49253110362063635           0.2535199744465019 0.2889367555072373 1.0000   
         C         C         1.0       0.4867748041114471  0.2644010406136263  0.3378970091489217 1.0000   
         C         C         1.0       0.4662959440834006  0.25567508294323776           0.36924768809535213          1.0000   
         C         C         1.0       0.4502899653521433  0.2340587800086317  0.35300332866424117          1.0000   
         C         C         1.0       0.5023690001985619  0.27117565038306823           0.24182305776664387          1.0000   
         C         C         1.0       0.573495302613539   0.323769731034056   0.2476711173460314 1.0000   
         C         C         1.0       0.5713350791306303  0.3038359737627225  0.2874175433286652 1.0000   
         C         C         1.0       0.5467912378520913  0.28887915856625407           0.2907678923529904 1.0000   
         C         C         1.0       0.5268164446742318  0.29263871131970914           0.25024776832515977          1.0000   
         C         C         1.0       0.5308148998218509  0.3108688683603857  0.20961557905875217          1.0000   
         C         C         1.0       0.5540516616487234  0.3273343467495411  0.20790469079272544          1.0000   
         C         C         1.0       0.4736868196627629  0.2864006494877014  0.22677085690868523          1.0000   
         C         C         1.0       0.46827913946900046           0.31069690805907374          0.24964921628843814          1.0000   
         C         C         1.0       0.4451315940039267  0.32562162913930204           0.23756400142362114          1.0000   
         C         C         1.0       0.42823482028021287           0.3172214962677849 0.19414772432450209          1.0000   
         C         C         1.0       0.4309493392728949  0.2921080040123975  0.17544018440804704          1.0000   
         C         C         1.0       0.4534622810188406  0.27666808805075943           0.19208163685254268          1.0000   
         C         C         1.0       0.5405367669300571  0.2382269690773265  0.2068020174713554 1.0000   
         C         C         1.0       0.5553523444807386  0.2244110331402502  0.1673315390025252 1.0000   
         C         C         1.0       0.5467786600261528  0.22526991454459433           0.11473386680591917          1.0000   
         C         C         1.0       0.5214057543823558  0.23583269428377243           0.10706434548438859          1.0000   
         C         C         1.0       0.5078457059113248  0.2508971488047833  0.14717111973109717          1.0000   
         C         C         1.0       0.5178523661216448  0.2533498141887798  0.1963736992721047 1.0000   
         H         H         1.0       0.3829355241899399  0.19624136955875165           0.4381804039816452 1.0000   
         H         H         1.0       0.46289682159649204           0.18369856773109236          0.3785980564704115 1.0000   
         H         H         1.0       0.46878865469389147           0.14323128099963472          0.4208686290356102 1.0000   
         H         H         1.0       0.38940890213763796           0.1556978050425588 0.49035825360993834          1.0000   
         H         H         1.0       0.45088149252330495           0.232987592174787  0.47245813845634527          1.0000   
         H         H         1.0       0.43952057768217667           0.25911277766546953          0.558272380599033  1.0000   
         H         H         1.0       0.36607739986389237           0.28732490000665695          0.48064056903096875          1.0000   
         H         H         1.0       0.37504352417987546           0.26070938294536866          0.40712580983302593          1.0000   
         H         H         1.0       0.4440105514547621  0.20560498043292433           0.28637839085388556          1.0000   
         H         H         1.0       0.47851087097337336           0.22416799479697064          0.23166103897856397          1.0000   
         H         H         1.0       0.49358398692442673           0.2845962317622359 0.34888522569532837          1.0000   
         H         H         1.0       0.46169193200111996           0.26849007679331927          0.40512443551963784          1.0000   
         H         H         1.0       0.5875492223114407  0.2983643677917486  0.31339441042662497          1.0000   
         H         H         1.0       0.5447796178041007  0.2724585900019997  0.3190073045427409 1.0000   
         H         H         1.0       0.5156492310630497  0.31530625448933125           0.1779480064872351 1.0000   
         H         H         1.0       0.5582548053900831  0.3420298697608377  0.1752945312133794 1.0000   
         H         H         1.0       0.48224175033785793           0.3177675132926778 0.28018323580006527          1.0000   
         H         H         1.0       0.443233451264912   0.34594972678562497           0.25416617252139617          1.0000   
         H         H         1.0       0.4164973166759214  0.28418456899333727           0.14416507208681212          1.0000   
         H         H         1.0       0.450803051251046   0.255315614276816   0.17928834764331247          1.0000   
         H         H         1.0       0.548842734388653   0.2404231930872917  0.24725746685716588          1.0000   
         H         H         1.0       0.573196505785885   0.21587884329441054           0.18107586522594799          1.0000   
         H         H         1.0       0.5134683264300793  0.23959825566904228           0.0688453353819709 1.0000   
         H         H         1.0       0.4916807194708022  0.26175595070704355           0.12893972496784573          1.0000   
         C         C         1.0       0.3409043709985865  0.24676084081041139           0.2080944575261607 1.0000   
         C         C         1.0       0.3150132800090857  0.2592744973139957  0.23501136149074517          1.0000   
         H         H         1.0       0.34972725163911556           0.2591664443977663 0.1769634118790812 1.0000   
         H         H         1.0       0.336285731313829   0.22769292366412708           0.1866724410942722 1.0000   
         H         H         1.0       0.3048517820314183  0.24320876316721926           0.26168936463968134          1.0000   
         H         H         1.0       0.3006414169844048  0.2624936159246826  0.2031205187895293 1.0000   
         C         C         1.0       0.44832185533023394           0.13825109901003077          0.5596570395412045 1.0000   
         C         C         1.0       0.43512170353656915           0.127306342774357  0.5074676880223523 1.0000   
         H         H         1.0       0.44552348771956596           0.12297104932324282          0.5918086181609717 1.0000   
         H         H         1.0       0.4359681813329999  0.15510202112253765           0.5744494734688544 1.0000   
         H         H         1.0       0.41490976109204925           0.11629313914225148          0.5196715028549503 1.0000   
         H         H         1.0       0.45003422061885656           0.1121276611536075 0.489704527271331  1.0000   
         C         C         1.0       0.6289768924180963  0.14866450811411142           0.7378149643462358 1.0000   
         C         C         1.0       0.6535241816126114  0.13001441618706838           0.7374484072213469 1.0000   
         H         H         1.0       0.6357325554247382  0.16928521925169962           0.7479382853973289 1.0000   
         H         H         1.0       0.616805669399719   0.1430094308483827  0.7714611171281738 1.0000   
         H         H         1.0       0.6655633596788659  0.13080176067465105           0.7736966365385961 1.0000   
         H         H         1.0       0.6685830401606031  0.1392982618313349  0.7117596114065895 1.0000   
         C         C         1.0       0.7559306400518665  0.9709586044842673  0.7694331999758496 1.0000   
         C         C         1.0       0.7380383491169645  0.9965322365521634  0.7760637042458031 1.0000   
         H         H         1.0       0.7757161039526511  0.9760036650190004  0.7869943652995797 1.0000   
         H         H         1.0       0.7604669698831     0.9698701493755654  0.7270040425244318 1.0000   
         H         H         1.0       0.7363943992376589  0.002700371801575674         0.8176480341395923 1.0000   
         H         H         1.0       0.7491665217989397  0.013164229996018406         0.7535756234625068 1.0000   
         C         C         1.0       0.8490239351120932  0.791209856533146   0.8934606206786463 1.0000   
         C         C         1.0       0.8312701950156441  0.8033255015831523  0.9396449679596746 1.0000   
         H         H         1.0       0.8428207933836727  0.7973573787298921  0.8544936250535788 1.0000   
         H         H         1.0       0.8414558244137693  0.7697941613133645  0.8908298153511187 1.0000   
         H         H         1.0       0.8242431189328268  0.7874851731549669  0.9660536086801891 1.0000   
         H         H         1.0       0.8434565496491412  0.8153090792245159  0.9666339557897985 1.0000   
         C         C         1.0       0.3427582381728194  0.4921871991706778  0.27405506548744335          1.0000   
         C         C         1.0       0.3508966431427843  0.46352168842361924           0.2557746311248375 1.0000   
         H         H         1.0       0.3600732881874533  0.5043824194351456  0.25980298789067396          1.0000   
         H         H         1.0       0.34564484313752714           0.49158574302919195          0.3208879514460016 1.0000   
         H         H         1.0       0.3747880191749115  0.4625913979989722  0.2611103181025071 1.0000   
         H         H         1.0       0.34708042357963037           0.46005834603375195          0.21374395123808415          1.0000   
         C         C         1.0       0.02817490335838957           0.6807790760464838 0.9728537088100876 1.0000   
         C         C         1.0       0.022203321746692373          0.6919483239517937 0.916676883130196  1.0000   
         H         H         1.0       0.027017098501091352          0.6580822840371378 0.9686577224034301 1.0000   
         H         H         1.0       0.010207844087508633          0.6870425810793137 0.9960418551693395 1.0000   
         H         H         1.0       0.007005508703599839          0.6762971112543591 0.9047487516939852 1.0000   
         H         H         1.0       0.03877519329496937           0.6872754066119278 0.8867698189174078 1.0000   
         C         C         1.0       0.2337662193581393  0.6683030017630693  0.03913438067383579          1.0000   
         C         C         1.0       0.24885014218249224           0.6659662491970075 0.09494038825428208          1.0000   
         H         H         1.0       0.23122437447012192           0.6476709191396838 0.022712997107753985         1.0000   
         H         H         1.0       0.24675346502547948           0.6798788432392825 0.007981854708002611         1.0000   
         H         H         1.0       0.2701477317753649  0.6729269623303652  0.08814047759550325          1.0000   
         H         H         1.0       0.24080091455124183           0.6832015127150561 0.11727238813431423          1.0000   
         C         C         1.0       0.7234342149252494  0.303751846739546   0.4987589517587934 1.0000   
         C         C         1.0       0.7210316196779062  0.33590342095846615           0.5015891630863377 1.0000   
         H         H         1.0       0.7260716389493618  0.2964341743306575  0.45954105829673086          1.0000   
         H         H         1.0       0.7416640110627053  0.29641578631698956           0.5185339919624071 1.0000   
         H         H         1.0       0.7040055448986604  0.34333154575489216           0.4805064892395577 1.0000   
         H         H         1.0       0.7403647313051742  0.34354175052044156           0.4819420795702415 1.0000   
         C         C         1.0       0.13571538516674297           0.3629966032195471 0.1619408804938134 1.0000   
         C         C         1.0       0.13921270882511472           0.3803331284379979 0.21311697760684245          1.0000   
         H         H         1.0       0.15462625256131624           0.36077484056374914          0.14163521449477812          1.0000   
         H         H         1.0       0.12959255312034546           0.3435071982691592 0.17725925234156525          1.0000   
         H         H         1.0       0.1462396441014946  0.36890030602543    0.24897223005620983          1.0000   
         H         H         1.0       0.11796815952110662           0.38731054884154215          0.22166771535077756          1.0000   
         C         C         1.0       0.9259599358493821  0.37430459709121444           0.8788264764217496 1.0000   
         C         C         1.0       0.9020759399186752  0.3830177154521536  0.8430309910289897 1.0000   
         H         H         1.0       0.9261703542132138  0.3513629196244797  0.872087502556947  1.0000   
         H         H         1.0       0.92074908800002    0.37340238295932643           0.9221313187733702 1.0000   
         H         H         1.0       0.9051707164615896  0.3835943620966891  0.7974299529232849 1.0000   
         H         H         1.0       0.9004460519069121  0.4045933784143373  0.8541190979498856 1.0000   
         C         C         1.0       0.2620376348325512  0.6180217930507782  0.4654133819569535 1.0000   
         C         C         1.0       0.2400474858326913  0.6257040207663894  0.42207681737753655          1.0000   
         H         H         1.0       0.2848889865481477  0.6220543028879921  0.4522424772759207 1.0000   
         H         H         1.0       0.2628188892210463  0.6307966821956221  0.5001665873023473 1.0000   
         H         H         1.0       0.24025379039398168           0.6471006663848098 0.4185225483764539 1.0000   
         H         H         1.0       0.22151713215565877           0.6209766810610429 0.4405110688094153 1.0000   
         C         C         1.0       0.17509309040470553           0.44444400544918927          0.9154507028918589 1.0000   
         C         C         1.0       0.1469304889095405  0.4382640546438105  0.8874541591164492 1.0000   
         H         H         1.0       0.18613532866507687           0.4637973963153329 0.9008316042300892 1.0000   
         H         H         1.0       0.18937652086858875           0.42754201132095543          0.9017569798467209 1.0000   
         H         H         1.0       0.143446630164944   0.41651632804774624           0.8855205579708941 1.0000   
         H         H         1.0       0.12942829395985792           0.4445934873287873 0.9108995725322959 1.0000   
         C         C         1.0       0.366778078850645   0.47600235727871615           0.6069599615127003 1.0000   
         C         C         1.0       0.36660899618396187           0.45466792041610266          0.6536886926952011 1.0000   
         H         H         1.0       0.3800239177120073  0.4929300414836999  0.6161887500854111 1.0000   
         H         H         1.0       0.3778845451101396  0.46684414206833685           0.5728666341616487 1.0000   
         H         H         1.0       0.3567806057097874  0.46409310903506973           0.6894951381465506 1.0000   
         H         H         1.0       0.38771840436247945           0.4508871874402024 0.6640471043037611 1.0000   
         C         C         1.0       0.05147532137704869           0.5263965451082541 0.6628116528643386 1.0000   
         C         C         1.0       0.03479889313662454           0.5238165969513362 0.7131808530313962 1.0000   
         H         H         1.0       0.05020590945123504           0.5461090025945942 0.6443307933851735 1.0000   
         H         H         1.0       0.041074225256305885          0.5138096991681063 0.6317215656008529 1.0000   
         H         H         1.0       0.01395596909369945           0.5302218683746726 0.7048279427308408 1.0000   
         H         H         1.0       0.04136359130495948           0.5404950472626009 0.7458099905812644 1.0000   
         C         C         1.0       0.07518408890286643           0.8074873092405286 0.9340206412810224 1.0000   
         C         C         1.0       0.08550264992001652           0.8292019886060961 0.8938584366275631 1.0000   
         H         H         1.0       0.06250801401464194           0.8198848882041526 0.9635360742380472 1.0000   
         H         H         1.0       0.06202676157674221           0.7915906687791223 0.9162438955554625 1.0000   
         H         H         1.0       0.09819545802169556           0.8436860290221307 0.9195587579893706 1.0000   
         H         H         1.0       0.06805162110868339           0.843040381167015  0.8853889695089158 1.0000   
         C         C         1.0       0.15292773325001294           0.6374267628131423 0.42804350669509644          1.0000   
         C         C         1.0       0.14209722956378432           0.6401577968580975 0.4872236652813777 1.0000   
         H         H         1.0       0.13983207168565703           0.6225014567919874 0.40498348192215344          1.0000   
         H         H         1.0       0.1740502117845961  0.6279507260661935  0.43149833066742477          1.0000   
         H         H         1.0       0.12287028387723012           0.6503371552464241 0.4809214124123583 1.0000   
         H         H         1.0       0.13535801102904532           0.6198675579108698 0.5024522478928524 1.0000   
         C         C         1.0       0.07062419291956971           0.847163588298191  0.5495676654245787 1.0000   
         C         C         1.0       0.04852016592774633           0.8674747769389711 0.5638222288062743 1.0000   
         H         H         1.0       0.06067087060119025           0.8298201730879617 0.5268941518451657 1.0000   
         H         H         1.0       0.08119617332869587           0.8569169309036491 0.5142696632930033 1.0000   
         H         H         1.0       0.038897494028403715          0.8730611638069016 0.5256807911314036 1.0000   
         H         H         1.0       0.05915017893866237           0.8853283698525013 0.5776647536420212 1.0000   
         C         C         1.0       0.24184011310081452           0.5917258624759826 0.7946918967003372 1.0000   
         C         C         1.0       0.2302297986911873  0.6200407829670121  0.8125207826788342 1.0000   
         H         H         1.0       0.25003449001950495           0.5836313599916998 0.8329271338195334 1.0000   
         H         H         1.0       0.26011961337180006           0.592927063696022  0.7701129435227299 1.0000   
         H         H         1.0       0.24523871574406406           0.6280382085934147 0.8425595673811855 1.0000   
         H         H         1.0       0.21209037348548218           0.6166155152680797 0.8345604698823518 1.0000   
         C         C         1.0       0.5422190641623906  0.8936836698012336  0.30615998132015176          1.0000   
         C         C         1.0       0.5586161571835948  0.8909920958617741  0.35833238269352335          1.0000   
         H         H         1.0       0.5356260460106177  0.8730916041910215  0.29450761370373557          1.0000   
         H         H         1.0       0.553000338679486   0.9038448473418698  0.2755133833431512 1.0000   
         H         H         1.0       0.5767900220731477  0.8759183185048935  0.3523139067428034 1.0000   
         H         H         1.0       0.547433269225047   0.8811650546338218  0.3894097228985747 1.0000   
         C         C         1.0       0.3048164542751535  0.7947695869516894  0.5952570719769193 1.0000   
         C         C         1.0       0.3037327794289016  0.7664119858014008  0.5717574138818386 1.0000   
         H         H         1.0       0.3005203484032818  0.7940021765527467  0.6384267902002636 1.0000   
         H         H         1.0       0.3270889518104073  0.7990547283743451  0.5905390136190718 1.0000   
         H         H         1.0       0.32454255030721224           0.7561900931980864 0.5779111225735348 1.0000   
         H         H         1.0       0.30220564025085317           0.7687533315064462 0.5272204845249803 1.0000   
         C         C         1.0       0.2889552189705351  0.7541723050253065  0.21385494001789287          1.0000   
         C         C         1.0       0.28204398046245555           0.7372891310119002 0.2634905051202603 1.0000   
         H         H         1.0       0.31254569704516916           0.7556614740641506 0.21544924328364456          1.0000   
         H         H         1.0       0.28820199535055807           0.7424180358520562 0.17527916199843488          1.0000   
         H         H         1.0       0.29425944809162397           0.7425424686897735 0.29829282437512494          1.0000   
         H         H         1.0       0.28769363735954356           0.7159181479109586 0.254627766775038  1.0000   
         C         C         1.0       0.3032923294751406  0.9893941951263285  0.35743685747709886          1.0000   
         C         C         1.0       0.3131935892633387  0.9598574934563513  0.36690859556543104          1.0000   
         H         H         1.0       0.29711081906839    0.9978142628926312  0.39629846131824575          1.0000   
         H         H         1.0       0.28347206543394016           0.989474427581775  0.3332867940024167 1.0000   
         H         H         1.0       0.3327284844006452  0.9613989606686191  0.3911221048795811 1.0000   
         H         H         1.0       0.32045211055840717           0.9496343154802662 0.32953171154286665          1.0000   
         C         C         1.0       0.580370805868821   0.1426500969708096  0.28299056140408774          1.0000   
         C         C         1.0       0.5865910405229793  0.12558882981581534           0.33144496071073104          1.0000   
         H         H         1.0       0.57652777595241    0.1306461149143652  0.24816598739368786          1.0000   
         H         H         1.0       0.5598536682274485  0.15101821949174135           0.28968177349048985          1.0000   
         H         H         1.0       0.6056921749290688  0.11269775233618229           0.3274383129613219 1.0000   
         H         H         1.0       0.5723041695013978  0.10963613413842954           0.3268588306008335 1.0000   
         C         C         1.0       0.6508180492012368  0.25772206418662763           0.8343042031653075 1.0000   
         C         C         1.0       0.6256129185205214  0.24003227748642647           0.8163300661206818 1.0000   
         H         H         1.0       0.6426587249421858  0.27816836100919673           0.844799626983476  1.0000   
         H         H         1.0       0.6663054175562358  0.2606389105178955  0.8029383551041901 1.0000   
         H         H         1.0       0.6280706661927087  0.21795035268373267           0.823362278726772  1.0000   
         H         H         1.0       0.608437683447234   0.2462264114440332  0.8390451402889308 1.0000   
         C         C         1.0       0.6163867918192623  0.33670359292647445           0.1881986087958776 1.0000   
         C         C         1.0       0.5993945982668637  0.34052069167162086           0.2406763235634518 1.0000   
         H         H         1.0       0.6320069567535689  0.3523771867364596  0.18713276439639268          1.0000   
         H         H         1.0       0.6032055223143723  0.3428721637708529  0.15398842267475862          1.0000   
         H         H         1.0       0.5937372261600045  0.3621539083914843  0.23945042417743698          1.0000   
         H         H         1.0       0.6122715709143203  0.33803320524405295           0.2769796086948241 1.0000   
         C         C         1.0       0.8218406925517815  0.20138987287155669           0.9548434910618411 1.0000   
         C         C         1.0       0.8226258823105699  0.21014395697692476           0.8956719466342082 1.0000   
         H         H         1.0       0.8321346852144108  0.21728887608880343           0.9798722379193394 1.0000   
         H         H         1.0       0.8323508939974744  0.18199080195097012           0.9621560238730599 1.0000   
         H         H         1.0       0.8114281873491469  0.1980783778729567  0.8663680503394786 1.0000   
         H         H         1.0       0.8431615062522797  0.20573038959180942           0.8821823291776864 1.0000   
         C         C         1.0       0.503454439235303   0.9754478224231881  0.7881701755118937 1.0000   
         C         C         1.0       0.5313631387897851  0.9622611644315919  0.7746478217899895 1.0000   
         H         H         1.0       0.4850408039473254  0.9632134169882113  0.7818606124182996 1.0000   
         H         H         1.0       0.49599538300913837           0.9915142879017885 0.7586331302249063 1.0000   
         H         H         1.0       0.5370246851543597  0.9516053070587623  0.811468272979067  1.0000   
         H         H         1.0       0.5289366464085496  0.947124187428512   0.7417946846951339 1.0000   
         C         C         1.0       0.5016396299477588  0.07674221955241722           0.3739635354024655 1.0000   
         C         C         1.0       0.5258684348732093  0.07772034246420345           0.4115854634715117 1.0000   
         H         H         1.0       0.48566383232295934           0.09074362355849597          0.38926544339305025          1.0000   
         H         H         1.0       0.49482662613984946           0.05568927897794995          0.379304704787491  1.0000   
         H         H         1.0       0.5369535424624339  0.09722819207112687           0.40768538583698744          1.0000   
         H         H         1.0       0.5207912523482144  0.07900039026831229           0.4532649395416306 1.0000   
         C         C         1.0       0.63537109976842    0.015176971263491934         0.899751878073332  1.0000   
         C         C         1.0       0.6585058289098944  0.9965008450693362  0.9205013520017584 1.0000   
         H         H         1.0       0.6313977238970195  0.010405020529663522         0.8570816240033181 1.0000   
         H         H         1.0       0.6410397034682391  0.03758326295242309           0.8975646280437951 1.0000   
         H         H         1.0       0.6758101277630675  0.0013183195934278746        0.8943634566411798 1.0000   
         H         H         1.0       0.6655519948163199  0.003826469586798442         0.9610521112556271 1.0000   
         C         C         1.0       0.41348665341396196           0.1654501864793776 0.16356633061970935          1.0000   
         C         C         1.0       0.4105275075377141  0.16313925326290635           0.22536262309087512          1.0000   
         H         H         1.0       0.4172344146593318  0.18641456379728294           0.15314808851951592          1.0000   
         H         H         1.0       0.3935920434815218  0.15827789784516577           0.1404021601457844 1.0000   
         H         H         1.0       0.39321656565959134           0.17689469039070382          0.23814304158021402          1.0000   
         H         H         1.0       0.4285051392661579  0.17201023489919587           0.2483568964611013 1.0000   
         C         C         1.0       0.6141088311308537  0.14080683681287193           0.05270105469822073          1.0000   
         C         C         1.0       0.6279468902929127  0.11351719776561553           0.031678170770173875         1.0000   
         H         H         1.0       0.6112144801284879  0.1567922523371473  0.023070890111155155         1.0000   
         H         H         1.0       0.6296747112399629  0.15001725284310838           0.07969211641096607          1.0000   
         H         H         1.0       0.6175941461744694  0.10416616770404863           0.9961329660454953 1.0000   
         H         H         1.0       0.6313461755522328  0.09658573689124528           0.06348615898518273          1.0000   
         C         C         1.0       0.7464298990566098  0.36387465078834286           0.10008825866918283          1.0000   
         C         C         1.0       0.7525742443452194  0.33414315162594516           0.0908774781047681 1.0000   
         H         H         1.0       0.7307283720950601  0.3685559394504523  0.0686593146349217 1.0000   
         H         H         1.0       0.7637255449939143  0.37595414181946546           0.08821101231404138          1.0000   
         H         H         1.0       0.7673760317946625  0.3247811513625118  0.11821709379049132          1.0000   
         H         H         1.0       0.7347664255207211  0.3203851783747024  0.09334433617964155          1.0000   
         C         C         1.0       0.6893729217190668  0.49774015229253604           0.6483060797701791 1.0000   
         C         C         1.0       0.7028083977532409  0.4894310102595941  0.7023397532822021 1.0000   
         H         H         1.0       0.66977187627373    0.48903322808205696           0.6479711907505287 1.0000   
         H         H         1.0       0.6876148478845144  0.5201259625943979  0.649201208941154  1.0000   
         H         H         1.0       0.6891772603725337  0.49930192796814693           0.7301241613812101 1.0000   
         H         H         1.0       0.722427370945514   0.5007475665609875  0.7046092011628502 1.0000   
         C         C         1.0       0.7604524670683492  0.25940232595104434           0.3741722717714739 1.0000   
         C         C         1.0       0.7391535484128278  0.23809047937978506           0.39515807137379444          1.0000   
         H         H         1.0       0.7691245518592597  0.25121018923164895           0.33711857211245433          1.0000   
         H         H         1.0       0.7772756391575175  0.2609230338263848  0.4064953149931624 1.0000   
         H         H         1.0       0.7303038276337555  0.2460335271728831  0.4339312499942375 1.0000   
         H         H         1.0       0.7500109179383609  0.2197933776466121  0.4059054950686495 1.0000   
         C         C         1.0       0.12671080058825668           0.36862513554592474          0.7072393718655375 1.0000   
         C         C         1.0       0.1440612547223774  0.38939613684403185           0.6734319700316888 1.0000   
         H         H         1.0       0.14127610911189903           0.36060357284598304          0.7375007328034517 1.0000   
         H         H         1.0       0.12019686493916204           0.3498323274366878 0.6873075663454046 1.0000   
         H         H         1.0       0.14806953286769686           0.40829314261819216          0.6963348318901597 1.0000   
         H         H         1.0       0.1647366942084405  0.37872088236802626           0.672442155993392  1.0000   
         C         C         1.0       0.006354435754019505          0.5023082102667034 0.17481065814365593          1.0000   
         C         C         1.0       0.9781144468955962  0.5047731326774249  0.2000429853481776 1.0000   
         H         H         1.0       0.022888502922530973          0.5073757743765125 0.2020664826861257 1.0000   
         H         H         1.0       0.007088085433587077          0.517858482729561  0.14043655472427496          1.0000   
         H         H         1.0       0.9609351861519457  0.5007431199911865  0.17178026667038004          1.0000   
         H         H         1.0       0.9741975502805207  0.5272238199241722  0.21333542168299463          1.0000   
         C         C         1.0       0.22172879658007183           0.4204374562145661 0.3844777284065648 1.0000   
         C         C         1.0       0.19502929029147253           0.4204376945934709 0.35118145401347217          1.0000   
         H         H         1.0       0.22327367459269643           0.40006527581921475          0.40119210104010866          1.0000   
         H         H         1.0       0.238923301833311   0.4211479767767077  0.3553527505658381 1.0000   
         H         H         1.0       0.1981978680491791  0.40647336703590276           0.31769674088618577          1.0000   
         H         H         1.0       0.18890132392690062           0.43921098412035353          0.3301740095753698 1.0000   
         C         C         1.0       0.8643343423467509  0.4551065554104875  0.4220266184816757 1.0000   
         C         C         1.0       0.8786224078283151  0.43164303868204834           0.45330900891561304          1.0000   
         H         H         1.0       0.8666294583355412  0.45117336914950024           0.377523693631564  1.0000   
         H         H         1.0       0.8754268973596928  0.4744624847793018  0.4315914478611717 1.0000   
         H         H         1.0       0.8667208000177634  0.41346311535425273           0.4474542451805018 1.0000   
         H         H         1.0       0.8797941927612782  0.4374380135664798  0.49570911432815806          1.0000   
         C         C         1.0       0.6650639708384907  0.574963944904872   0.4479612290139976 1.0000   
         C         C         1.0       0.6780490692175025  0.565543828700917   0.393415805442595  1.0000   
         H         H         1.0       0.6535048349689565  0.5929124085376566  0.43547468387995686          1.0000   
         H         H         1.0       0.6814958722039819  0.5827289629266184  0.4764838043965362 1.0000   
         H         H         1.0       0.6888258951043909  0.5810066115482447  0.370603640047794  1.0000   
         H         H         1.0       0.6605123094084143  0.5597792976625973  0.364306658920117  1.0000   
         C         C         1.0       0.592948815658029   0.34266942351837504           0.7859800309045962 1.0000   
         C         C         1.0       0.6142732860416744  0.33012533510423003           0.8252889507271653 1.0000   
         H         H         1.0       0.5707383503233058  0.3340693159037274  0.7933421980835652 1.0000   
         H         H         1.0       0.5993142775951735  0.3325744446582717  0.7480504440014338 1.0000   
         H         H         1.0       0.6100327874220882  0.3089688608595291  0.829008184894006  1.0000   
         H         H         1.0       0.6118789320369635  0.3407676172054776  0.8646409080795789 1.0000   
         C         C         1.0       0.37970462680980377           0.8812806705984203 0.44690196402053856          1.0000   
         C         C         1.0       0.3922555775521236  0.8539509466574334  0.42475323553285993          1.0000   
         H         H         1.0       0.3745863697992951  0.8799998634547377  0.4907264869478544 1.0000   
         H         H         1.0       0.35910798456180604           0.8837589001573156 0.42805511548568964          1.0000   
         H         H         1.0       0.3801196564798844  0.8351502038312975  0.42785263883510605          1.0000   
         H         H         1.0       0.3954808659059874  0.8569387533474759  0.38350696840567855          1.0000   
         C         C         1.0       0.5109356760072464  0.6095704347128793  0.6040751944231373 1.0000   
         C         C         1.0       0.4950415135530388  0.6254287210829833  0.5596353532722893 1.0000   
         H         H         1.0       0.49777877536469967           0.60203213904086   0.637450582222554  1.0000   
         H         H         1.0       0.5235522722798402  0.6253023355239308  0.6205982731219812 1.0000   
         H         H         1.0       0.47999380837347516           0.610484324111856  0.548318842765293  1.0000   
         H         H         1.0       0.507819030136944   0.6299129856079374  0.5227599740459005 1.0000   
         C         C         1.0       0.06705843487443075           0.3379556342083291 0.23648288295306563          1.0000   
         C         C         1.0       0.03637569583143074           0.3334909018903741 0.24821985087984677          1.0000   
         H         H         1.0       0.0776987629912389  0.35085705464717465           0.26785355580353215          1.0000   
         H         H         1.0       0.06665334313762972           0.3525779275839862 0.20242262796374993          1.0000   
         H         H         1.0       0.03582786807884997           0.31485021329595797          0.2746225012707172 1.0000   
         H         H         1.0       0.02514557528386674           0.32949423687430945          0.2096689807133761 1.0000   
         C         C         1.0       0.9550592434402846  0.311006209810436   0.05921617782042188          1.0000   
         C         C         1.0       0.9643815650837786  0.2930318612553524  0.010176863110913592         1.0000   
         H         H         1.0       0.9551706985397106  0.2984151312337193  0.09747304618966024          1.0000   
         H         H         1.0       0.9331521234863983  0.3172879028229213  0.054904860190224  1.0000   
         H         H         1.0       0.951959832526748   0.273333318082382   0.013748002914919955         1.0000   
         H         H         1.0       0.9591618193814073  0.304352814562347   0.9735002014651847 1.0000   
         C         C         1.0       0.09692867424268141           0.8681625526667243 0.14908722729309337          1.0000   
         C         C         1.0       0.11014638646919622           0.8480847967358961 0.18906791948533258          1.0000   
         H         H         1.0       0.07617420179932456           0.8590663809131593 0.13924953922509817          1.0000   
         H         H         1.0       0.10796866204436849           0.8672161742427195 0.1123396512000763 1.0000   
         H         H         1.0       0.09756874295364094           0.8508601583247428 0.22690485089186033          1.0000   
         H         H         1.0       0.10386473228992493           0.8266143215551988 0.17801476496740232          1.0000   
         C         C         1.0       0.04197419731135065           0.1316701008481352 0.28035925528328953          1.0000   
         C         C         1.0       0.048402655313473514          0.15676121859264902          0.3175250194296038 1.0000   
         H         H         1.0       0.024012971313707387          0.13873207360492512          0.2601862954727899 1.0000   
         H         H         1.0       0.03613143849143976           0.11255993121253359          0.3017513182691785 1.0000   
         H         H         1.0       0.030608322515994255          0.1662958944766797 0.33700304287553096          1.0000   
         H         H         1.0       0.062495313995213395          0.1477204430662202 0.3499141761190671 1.0000   
         C         C         1.0       0.3810197118298613  0.0256351467088598  0.9858558155489758 1.0000   
         C         C         1.0       0.3988720526185941  0.045909136894439095         0.015188649874778193         1.0000   
         H         H         1.0       0.38385640993813647           0.028105212639803145         0.9423146507815023 1.0000   
         H         H         1.0       0.3590246965315361  0.03067580667479608           0.9935642731005089 1.0000   
         H         H         1.0       0.39243116305931086           0.06664356533641747          0.002603422028562452         1.0000   
         H         H         1.0       0.4193864366605876  0.04233887020258931           0.0012208931760886443        1.0000   
         C         C         1.0       0.49740033654490295           0.9478508900643452 0.6174610335914944 1.0000   
         C         C         1.0       0.49864060318459025           0.9767561061689499 0.5982770017748021 1.0000   
         H         H         1.0       0.5167218856144663  0.9458864444486076  0.6433599935038654 1.0000   
         H         H         1.0       0.500485078322782   0.9312959362660471  0.586176338735998  1.0000   
         H         H         1.0       0.4832586239245335  0.9895699439594927  0.6205601503297078 1.0000   
         H         H         1.0       0.5181077061480518  0.9852532977879592  0.6079264901686903 1.0000   
         C         C         1.0       0.5003130901745642  0.8866682963501441  0.13458795579026317          1.0000   
         C         C         1.0       0.5073602767886307  0.9150121439913325  0.162251385221599  1.0000   
         H         H         1.0       0.5179106749122625  0.8800367826167849  0.10951402380661568          1.0000   
         H         H         1.0       0.497239003676631   0.8702965704401119  0.1620746747729953 1.0000   
         H         H         1.0       0.5232325707203597  0.9158860828933858  0.1925438948689271 1.0000   
         H         H         1.0       0.4883327191892145  0.9189923851237356  0.18712147418722874          1.0000   
         C         C         1.0       0.3688326932638073  0.8128732997633766  0.6640472241040111 1.0000   
         C         C         1.0       0.36132169125206665           0.785947766668568  0.6961479863151131 1.0000   
         H         H         1.0       0.3514009429479274  0.8186412945619486  0.6381212690777676 1.0000   
         H         H         1.0       0.38376213341280785           0.8093833742905963 0.6347365536437167 1.0000   
         H         H         1.0       0.3464588852831     0.7730209609785766  0.6744913666669247 1.0000   
         H         H         1.0       0.35283397898094704           0.7892897351727931 0.7370592979007715 1.0000   
         C         C         1.0       0.29092592356563857           0.9612955514910358 0.13383026918875585          1.0000   
         C         C         1.0       0.27115831866459916           0.9562677945929667 0.18067522871058328          1.0000   
         H         H         1.0       0.2929632106812467  0.9438392289352182  0.10723573663123398          1.0000   
         H         H         1.0       0.31025321524245686           0.9643482158376391 0.1542822451925676 1.0000   
         H         H         1.0       0.2524615135179953  0.9674148094251205  0.17320384381035892          1.0000   
         H         H         1.0       0.27971518861286854           0.9694949874348887 0.2131577572027802 1.0000   
         C         C         1.0       0.16572357641221425           0.9332311171300567 0.6269260967712512 1.0000   
         C         C         1.0       0.15936715906004742           0.9641862630520516 0.6164712801841155 1.0000   
         H         H         1.0       0.17721452752485098           0.9319987697611908 0.6654874920676354 1.0000   
         H         H         1.0       0.14651867741030491           0.9227867357001144 0.6331950315241529 1.0000   
         H         H         1.0       0.1411428340520649  0.9671112676456295  0.5881753495015729 1.0000   
         H         H         1.0       0.1766632134689746  0.970993966741584   0.5926608916628966 1.0000   
         C         C         1.0       0.2541616406790726  0.8956573469814794  0.681779698271942  1.0000   
         C         C         1.0       0.25757048374760383           0.8639566790020354 0.6938194057210959 1.0000   
         H         H         1.0       0.24472220669529954           0.8976476903211165 0.6421311524827569 1.0000   
         H         H         1.0       0.27498032546265927           0.9029938250740261 0.6753411809048768 1.0000   
         H         H         1.0       0.26794234751120116           0.8606082478170922 0.7323521486613952 1.0000   
         H         H         1.0       0.2709020722425458  0.8562151671127032  0.6614758527565007 1.0000   
         C         C         1.0       0.23126344957849587           0.14161478594574262          0.054304677632246445         1.0000   
         C         C         1.0       0.22617203548867784           0.1392047578385318 0.1152443818873008 1.0000   
         H         H         1.0       0.24924389288227547           0.15483860711139807          0.05535833435289894          1.0000   
         H         H         1.0       0.21344217007158084           0.15261968886324717          0.03192774648349883          1.0000   
         H         H         1.0       0.2243636040164582  0.1603790135502039  0.13063344106176844          1.0000   
         H         H         1.0       0.2430421002287027  0.1276529335720209  0.13758921520287926          1.0000   
         C         C         1.0       0.348529298640853   0.04361244826872035           0.7866550794736358 1.0000   
         C         C         1.0       0.34362586645823906           0.02122098921714599          0.7428252505104813 1.0000   
         H         H         1.0       0.34638617754998896           0.06451670051343572          0.7669551273350299 1.0000   
         H         H         1.0       0.36959692332497085           0.040996899758596994         0.801362025022109  1.0000   
         H         H         1.0       0.34971471135112503           0.030365363870089146         0.7045754933112083 1.0000   
         H         H         1.0       0.3210507494316386  0.019681260985240145         0.7384523772943308 1.0000   
         C         C         1.0       0.6048833872421702  0.378445245862582   0.407242144415887  1.0000   
         C         C         1.0       0.5823544487316391  0.36424393769076474           0.3747457891120002 1.0000   
         H         H         1.0       0.6011805931781744  0.40004055899954255           0.4193889122438708 1.0000   
         H         H         1.0       0.6060840248196364  0.36927433663681924           0.447772008045142  1.0000   
         H         H         1.0       0.5661466149469453  0.35280404250405456           0.3978437818222985 1.0000   
         H         H         1.0       0.5902876923190575  0.34758240031918125           0.35159667098744785          1.0000   
         C         C         1.0       0.49966520960172456           0.4403630269796595 0.49891622870031094          1.0000   
         C         C         1.0       0.4781789151910732  0.45660624785486065           0.466114897031451  1.0000   
         H         H         1.0       0.5070208158026479  0.4240519867191322  0.4733594171415291 1.0000   
         H         H         1.0       0.4920198463355012  0.42935109562970375           0.5354328369030643 1.0000   
         H         H         1.0       0.4574840347336108  0.4500511677309557  0.47528007297930946          1.0000   
         H         H         1.0       0.47732833545441306           0.4793998883531737 0.4766680543549179 1.0000   
         C         C         1.0       0.6413534241573261  0.5221120059407809  0.9885649438366296 1.0000   
         C         C         1.0       0.6542645645855857  0.4949452286445385  0.966949096762959  1.0000   
         H         H         1.0       0.6406660427849266  0.5384812468314244  0.959101746987894  1.0000   
         H         H         1.0       0.6535566678106551  0.5318067805643178  0.021354347581709954         1.0000   
         H         H         1.0       0.6576798437855164  0.4795111952769906  6.14315399181109e-05         1.0000   
         H         H         1.0       0.6753461511441885  0.4966134761098754  0.9542193362058916 1.0000   
         C         C         1.0       0.4077715554569754  0.33909135114514033           0.17026802717407055          1.0000   
         C         C         1.0       0.4187839604078934  0.3589602197791071  0.12739708298093547          1.0000   
         H         H         1.0       0.3901686803425636  0.3285167258035129  0.15295709712591646          1.0000   
         H         H         1.0       0.3984475105046627  0.3499492654329591  0.20447637017838874          1.0000   
         H         H         1.0       0.42726770095660854           0.3490753051762333 0.09175920190214026          1.0000   
         H         H         1.0       0.404912613886303   0.37363598960276784           0.10725508571851426          1.0000   
         C         C         1.0       0.38715658428801936           0.804884571873084  0.13831100831456236          1.0000   
         C         C         1.0       0.36243914614933953           0.8136028141247345 0.10313726520392416          1.0000   
         H         H         1.0       0.3898471484820942  0.8228496331243113  0.16865280816413808          1.0000   
         H         H         1.0       0.3811203126668243  0.7884617262044877  0.1658891320439988 1.0000   
         H         H         1.0       0.34394382445128113           0.818963049140977  0.12745130773542418          1.0000   
         H         H         1.0       0.3552317602462906  0.7942789731413031  0.08195647891009528          1.0000   
         C         C         1.0       0.5078252945254156  0.6732639966702785  0.9120797912931671 1.0000   
         C         C         1.0       0.524151397193563   0.676534066004701   0.8578887048578336 1.0000   
         H         H         1.0       0.5194664498820316  0.6612889425012065  0.9425248294591553 1.0000   
         H         H         1.0       0.4914750036399481  0.6583318746444787  0.9065226591435264 1.0000   
         H         H         1.0       0.5336043824465603  0.656301322138341   0.8423623524796617 1.0000   
         H         H         1.0       0.5414454832051792  0.6905344456686592  0.8657596278446424 1.0000   
         C         C         1.0       0.5697213367829331  0.7510701506489914  0.4175869299727725 1.0000   
         C         C         1.0       0.5945215940573509  0.7635092354103794  0.38777032680667717          1.0000   
         H         H         1.0       0.5590304839972626  0.7358508268017273  0.3946773829189062 1.0000   
         H         H         1.0       0.578144076176464   0.7375391067283119  0.45084211725583834          1.0000   
         H         H         1.0       0.6142837742834728  0.7521991880339471  0.3993390385930212 1.0000   
         H         H         1.0       0.5949817278317932  0.7843602329691549  0.4039998253160331 1.0000   
         C         C         1.0       0.5016811735193927  0.8491903117791249  0.8292223068486424 1.0000   
         C         C         1.0       0.5281271691501447  0.8495617357786788  0.7971484781824104 1.0000   
         H         H         1.0       0.4851195298919499  0.843942160966241   0.8015581290696213 1.0000   
         H         H         1.0       0.4962330771144955  0.8696965921349813  0.843179182650346  1.0000   
         H         H         1.0       0.5254154200903267  0.866506711064263   0.7663725119680495 1.0000   
         H         H         1.0       0.5337417438134008  0.8302945129806315  0.7773702842212256 1.0000   
         C         C         1.0       0.5589882511710499  0.6341685786048985  0.08485166783727438          1.0000   
         C         C         1.0       0.5302311741210622  0.6221364080204276  0.09268942419311577          1.0000   
         H         H         1.0       0.5653354921417627  0.630380308190319   0.04328030298987362          1.0000   
         H         H         1.0       0.5748999135226388  0.6248758481099861  0.11207574885107188          1.0000   
         H         H         1.0       0.51539198791476    0.6320585768092166  0.06482604736337971          1.0000   
         H         H         1.0       0.5249624507943191  0.6276025586433479  0.13532684242407678          1.0000   
         C         C         1.0       0.5671757612651963  0.8635417564750497  0.16396493782575952          1.0000   
         C         C         1.0       0.5684819316930931  0.8468162829034248  0.11421786187613979          1.0000   
         H         H         1.0       0.5485101070019299  0.8608633389425993  0.18757470368115503          1.0000   
         H         H         1.0       0.5632653601417578  0.8847176840687813  0.15137040458341028          1.0000   
         H         H         1.0       0.5724453200745965  0.8257082340134916  0.12582413640055182          1.0000   
         H         H         1.0       0.5450141672977888  0.8448072291559978  0.1027120077516829 1.0000   
         C         C         1.0       0.7372289419257186  0.7854868305440309  0.6173115220707551 1.0000   
         C         C         1.0       0.7615784447157443  0.7889793189566318  0.6537137602651102 1.0000   
         H         H         1.0       0.743844986442498   0.7726331872124683  0.5817673320699687 1.0000   
         H         H         1.0       0.7211815013095407  0.7745802125935358  0.6366950310955904 1.0000   
         H         H         1.0       0.7765724466680204  0.7998729864406311  0.6259103845178525 1.0000   
         H         H         1.0       0.7714130218626378  0.7704437847415024  0.6674032151939848 1.0000   
         C         C         1.0       0.7286896775986685  0.9862313133424472  0.5161067481903466 1.0000   
         C         C         1.0       0.722033172335066   0.0006781604191026247        0.460557875093189  1.0000   
         H         H         1.0       0.7209157838474559  0.9995892684717843  0.5467939300688529 1.0000   
         H         H         1.0       0.7500626657762828  0.9889704660422898  0.5164336905991143 1.0000   
         H         H         1.0       0.7294145063209841  0.022053234224328255         0.4615155228400001 1.0000   
         H         H         1.0       0.7341014446095385  0.9917033600103476  0.42705856972691664          1.0000   
         C         C         1.0       0.7124239326836349  0.7741451060489071  0.1798602970128552 1.0000   
         C         C         1.0       0.6987733532541607  0.7694911919931555  0.1216185717920769 1.0000   
         H         H         1.0       0.7342388222597387  0.7783950505517425  0.17562098064242337          1.0000   
         H         H         1.0       0.7102607883535729  0.7539283279341973  0.20273456216088345          1.0000   
         H         H         1.0       0.7002149521439274  0.7862791297966754  0.09199583106324316          1.0000   
         H         H         1.0       0.709888614167004   0.7512890455187332  0.10417128711031666          1.0000   
         C         C         1.0       0.5517872567461725  0.9024728257141751  0.6596166046450962 1.0000   
         C         C         1.0       0.5790777610316026  0.887941959843215   0.6735546701238503 1.0000   
         H         H         1.0       0.5582005144529155  0.9237279017699109  0.6498595436266679 1.0000   
         H         H         1.0       0.5430684338613826  0.9039856433479828  0.6984865164123146 1.0000   
         H         H         1.0       0.5747289507632021  0.8662558691051908  0.6888238534387037 1.0000   
         H         H         1.0       0.5895487737120663  0.8989963226398702  0.7098759225752169 1.0000   
         C         C         1.0       0.07401159991971051           0.8335691281996035 0.38571043576930747          1.0000   
         C         C         1.0       0.08806787662066669           0.8257466516247738 0.3320350524133701 1.0000   
         H         H         1.0       0.0897676740199247  0.844023255322324   0.4119747906984325 1.0000   
         H         H         1.0       0.0664845014689992  0.8160554136187725  0.40912942919427797          1.0000   
         H         H         1.0       0.09882505394338842           0.8422586962652036 0.31598448406208884          1.0000   
         H         H         1.0       0.0719275898213747  0.8197137328285808  0.3057367253563788 1.0000   
         C         C         1.0       0.8637861467265612  0.7933645679170396  0.5604277474152959 1.0000   
         C         C         1.0       0.8381371517734517  0.8118271542046924  0.552600762980151  1.0000   
         H         H         1.0       0.8716940968296089  0.784055899021635   0.5227393628891076 1.0000   
         H         H         1.0       0.8587972594774989  0.7745560785532207  0.5815873469041423 1.0000   
         H         H         1.0       0.8330204235380525  0.8164546368097899  0.5950923437007085 1.0000   
         H         H         1.0       0.8194607420808767  0.8006159737533634  0.5405707544610624 1.0000   
         C         C         1.0       0.0009636284058669453         0.8801594263270821 0.08874229514797327          1.0000   
         C         C         1.0       0.016635068726164493          0.8539007533078222 0.0810122820318353 1.0000   
         H         H         1.0       0.015754021990847855          0.8967611408607712 0.0806130582270328 1.0000   
         H         H         1.0       0.9824576059172565  0.8812323730081343  0.06400300427920769          1.0000   
         H         H         1.0       0.01444060022483562           0.8395843783019077 0.1148009987647013 1.0000   
         H         H         1.0       0.03842375037647572           0.855796589435785  0.0801979366627037 1.0000   
         C         C         1.0       0.012156679791113234          0.024508264321573714         0.38586083799992826          1.0000   
         C         C         1.0       0.982803007495398   0.0177448524158188  0.36791257268754624          1.0000   
         H         H         1.0       0.01287900357916949           0.01682415223737066          0.42627779727535303          1.0000   
         H         H         1.0       0.01240900522508781           0.047009776254973934         0.39019739054397823          1.0000   
         H         H         1.0       0.9771102054680197  0.030795645164301222         0.3308762096429794 1.0000   
         H         H         1.0       0.9702140376925936  0.024511368642260223         0.40188554021189   1.0000   
         C         C         1.0       0.7468921632094642  0.9530786594271147  0.32641115294185513          1.0000   
         C         C         1.0       0.774655147363586   0.9494444304345667  0.2982058429767652 1.0000   
         H         H         1.0       0.736562065470337   0.9722777916954419  0.3160843049496406 1.0000   
         H         H         1.0       0.751003261894459   0.9573050444476771  0.3691038048930143 1.0000   
         H         H         1.0       0.7710026731675267  0.9362946713566762  0.2614150854952724 1.0000   
         H         H         1.0       0.7844618178438858  0.9688858651212803  0.2830409139858655 1.0000   
         C         C         1.0       0.41908949418456537           0.32173488080004425          0.5546706754938905 1.0000   
         C         C         1.0       0.40060929142216245           0.29718967276026703          0.5693914383357265 1.0000   
         H         H         1.0       0.4330030299374801  0.3164141203663908  0.5224207390244207 1.0000   
         H         H         1.0       0.4066372050678408  0.3376661167612081  0.5358046591594045 1.0000   
         H         H         1.0       0.37920333909244136           0.30390917275936946          0.5705702978580179 1.0000   
         H         H         1.0       0.40647151052308744           0.2868780576868612 0.6074239407833841 1.0000   
         C         C         1.0       0.5632647034915357  0.21556522295141248           0.06881657746182324          1.0000   
         C         C         1.0       0.5768498194200924  0.23981172428466688           0.03686633948981277          1.0000   
         H         H         1.0       0.5790620001749948  0.20239668018118606           0.09033850687165734          1.0000   
         H         H         1.0       0.5533550796768029  0.19953160104662362           0.043358431341878  1.0000   
         H         H         1.0       0.5932368556839183  0.2343533552370706  0.00631846086473975          1.0000   
         H         H         1.0       0.5871757694175199  0.2524833394028304  0.06860944810132974          1.0000   
         C         C         1.0       0.5730352943397307  0.4029958780933211  0.6194814464360804 1.0000   
         C         C         1.0       0.5816379768218302  0.38909995231705313           0.5651264435597538 1.0000   
         H         H         1.0       0.5915411750945263  0.40489019883710703           0.6440070415512684 1.0000   
         H         H         1.0       0.5690307612843437  0.4246961899167472  0.6075329923901631 1.0000   
         H         H         1.0       0.5947168268857884  0.40382052457761314           0.5446424972207141 1.0000   
         H         H         1.0       0.5637973584598678  0.388358761828481   0.5406618460983138 1.0000   
         C         C         1.0       0.4466776550823816  0.4101565514373184  0.00694875182858401          1.0000   
         C         C         1.0       0.4527200769845584  0.432949070010973   0.9671131173792804 1.0000   
         H         H         1.0       0.42572465531735826           0.4125812551560078 0.017839996917472067         1.0000   
         H         H         1.0       0.45858641889153134           0.4137987963484356 0.04676777428135237          1.0000   
         H         H         1.0       0.4614138338780425  0.42252854947324    0.9315054857363235 1.0000   
         H         H         1.0       0.43390704268034175           0.44343862673372564          0.9473459305799671 1.0000   
         C         C         1.0       0.4605521626406034  0.46840354509629606           0.8446993767736869 1.0000   
         C         C         1.0       0.46939694864351134           0.49031781719546097          0.8016184382390305 1.0000   
         H         H         1.0       0.43881196776626374           0.4711520027113451 0.8565145439406013 1.0000   
         H         H         1.0       0.47125893676426434           0.4675885205492824 0.8838398674511481 1.0000   
         H         H         1.0       0.46579428807141243           0.5110219496119419 0.813215768596004  1.0000   
         H         H         1.0       0.4604620956651364  0.48512064691265255           0.76148913798449   1.0000   
         C         C         1.0       0.1988016094887025  0.3010636136047363  0.26644065596190625          1.0000   
         C         C         1.0       0.19648294646453188           0.32670385139930724          0.29839425918297197          1.0000   
         H         H         1.0       0.17785735001554678           0.29669766297147343          0.2596978619128182 1.0000   
         H         H         1.0       0.20816752144228057           0.28457957985234617          0.28833633038579226          1.0000   
         H         H         1.0       0.1836083528936031  0.34325957675784124           0.2811805930164511 1.0000   
         H         H         1.0       0.18368023058947694           0.3232318196656397 0.33580810809518613          1.0000   
         C         C         1.0       0.3232586106713362  0.22935612312203646           0.6921891244529539 1.0000   
         C         C         1.0       0.3492834189312061  0.24453113061753992           0.6756103906296247 1.0000   
         H         H         1.0       0.305371256659516   0.23497263313236819           0.6674991606103832 1.0000   
         H         H         1.0       0.323571072383604   0.20781671048336656           0.6787297845221719 1.0000   
         H         H         1.0       0.35951499041924295           0.23276401499205235          0.644100834469375  1.0000   
         H         H         1.0       0.3646829417991991  0.2482499541652274  0.70754894878946   1.0000   
         C         C         1.0       0.31812924612032933           0.3960913014432634 0.13885147223847283          1.0000   
         C         C         1.0       0.3199854608271459  0.42483841214302365           0.11253134057098424          1.0000   
         H         H         1.0       0.3378574667205277  0.38780930048786094           0.13814112645783094          1.0000   
         H         H         1.0       0.31240052780564154           0.3990122847348659 0.18282645669597067          1.0000   
         H         H         1.0       0.32606474421326903           0.4209224387981304 0.0701468202299873 1.0000   
         H         H         1.0       0.33724892705782306           0.43689354641372596          0.12833518477928374          1.0000   
         C         C         1.0       0.15780098103364867           0.3510422965223683 0.8923635385415376 1.0000   
         C         C         1.0       0.12793244517194047           0.35570334227403366          0.9087130086862666 1.0000   
         H         H         1.0       0.16548396897321171           0.36915388919338266          0.8742184410187986 1.0000   
         H         H         1.0       0.1588883884409234  0.33539483556034594           0.8617655074537776 1.0000   
         H         H         1.0       0.1184070079654355  0.3662655224454578  0.8766753562681818 1.0000   
         H         H         1.0       0.12777109276521892           0.36965513242911785          0.9449908087538795 1.0000   
         C         C         1.0       0.3878439601741039  0.22466836900744    0.05985057137902139          1.0000   
         C         C         1.0       0.41403671714767176           0.21481755521628113          0.033685334282200996         1.0000   
         H         H         1.0       0.38830531510547966           0.24382750332311845          0.0833212141596682 1.0000   
         H         H         1.0       0.3858180434216093  0.20893254026143335           0.09251775378946658          1.0000   
         H         H         1.0       0.4085428976391018  0.1995435164144174  0.9996694069253069 1.0000   
         H         H         1.0       0.4255714700842509  0.2038056891722287  0.06282357390666404          1.0000   
         C         C         1.0       0.09863578287187083           0.9051575393823127 0.9483999115730845 1.0000   
         C         C         1.0       0.11541304691845963           0.9266423077521108 0.9803239543046691 1.0000   
         H         H         1.0       0.08497284125503539           0.8936442201303362 0.9752489740731771 1.0000   
         H         H         1.0       0.11042969567316593           0.8905272916953895 0.9273628003785117 1.0000   
         H         H         1.0       0.12573907914590904           0.916845846494095  0.014096314290866108         1.0000   
         H         H         1.0       0.10310232385179587           0.9421964687143385 0.0014552022246925311        1.0000   
         C         C         1.0       0.09303567958046009           0.07813034251525885          0.8813832668299109 1.0000   
         C         C         1.0       0.122109804499042   0.08079254526606805           0.9066812467708354 1.0000   
         H         H         1.0       0.09519730574982242           0.08746398286751345          0.8434452240886435 1.0000   
         H         H         1.0       0.07857756883206589           0.0896624183924184 0.9043607380163289 1.0000   
         H         H         1.0       0.1385658934151813  0.06652585064693595           0.8948168979119766 1.0000   
         H         H         1.0       0.12958511861682642           0.10148854299925669          0.8939516646398653 1.0000   
         C         C         1.0       0.12544741286584205           0.9012087121753747 0.4450693979118221 1.0000   
         C         C         1.0       0.15147759398225294           0.917499355889297  0.4335946841304379 1.0000   
         H         H         1.0       0.11835385365439177           0.891299646151338  0.4097588803873984 1.0000   
         H         H         1.0       0.131164288125989   0.8841661627412049  0.4728036971447365 1.0000   
         H         H         1.0       0.1684101153818349  0.9036331451351125  0.42414624396692735          1.0000   
         H         H         1.0       0.15622015134815395           0.9312715010966369 0.47040698496496963          1.0000   
         C         C         1.0       0.9423091238073075  0.005439779431475111         0.5317085218469914 1.0000   
         C         C         1.0       0.9203874346428988  0.98861624886604    0.556803260156138  1.0000   
         H         H         1.0       0.9401461372990353  0.026411132762419687         0.550939316172353  1.0000   
         H         H         1.0       0.9379674654511715  0.008081254681082894         0.4892401441776292 1.0000   
         H         H         1.0       0.9056863261584587  0.00395251416971476           0.5692690927889332 1.0000   
         H         H         1.0       0.9285942049825309  0.9761402271949932  0.5910612579775516 1.0000   
         C         C         1.0       0.9082526064920601  0.9596830656403404  0.7337294007723751 1.0000   
         C         C         1.0       0.920425666303643   0.9693430915234309  0.7916793028297571 1.0000   
         H         H         1.0       0.9145173192419705  0.9742957522827181  0.7042632071344029 1.0000   
         H         H         1.0       0.8859195273976023  0.9614312102664617  0.7401345455492547 1.0000   
         H         H         1.0       0.9141102443873624  0.9531447849203568  0.8199413766380094 1.0000   
         H         H         1.0       0.9087787862668473  0.9876086843046207  0.7996863773201314 1.0000   
         C         C         1.0       0.06535378659333735           0.2726353073742174 0.36534164858428053          1.0000   
         C         C         1.0       0.05061351506908052           0.29009364086628125          0.40542353040319445          1.0000   
         H         H         1.0       0.0675257661011266  0.2797603449262824  0.32362669977391195          1.0000   
         H         H         1.0       0.053408288885457234          0.2538960851976387 0.3614297971184459 1.0000   
         H         H         1.0       0.04482338083712434           0.2795821564629195 0.44244430103128246          1.0000   
         H         H         1.0       0.0325883429395637  0.2945334417293917  0.3843773405403511 1.0000   
         C         C         1.0       0.22566856073422817           0.1954837639468561 0.2538902733284771 1.0000   
         C         C         1.0       0.23723919535303312           0.21231829428717194          0.3010419177312983 1.0000   
         H         H         1.0       0.24039837440929296           0.19457706461125304          0.22068311490965278          1.0000   
         H         H         1.0       0.2260578031938491  0.1726757339173041  0.26250794256594734          1.0000   
         H         H         1.0       0.24460681569493023           0.23196352437179976          0.2845880780464886 1.0000   
         H         H         1.0       0.2548498339917953  0.20264015906038485           0.31778346050777007          1.0000   
         C         C         1.0       0.08382075534514477           0.14696108824193524          0.8553008389358787 1.0000   
         C         C         1.0       0.07027877867797822           0.14500388580034881          0.7993109760148259 1.0000   
         H         H         1.0       0.10407314930014808           0.13827126290431474          0.8499527305725003 1.0000   
         H         H         1.0       0.0731013174411738  0.13487397054367883           0.8837197733346616 1.0000   
         H         H         1.0       0.05907334229489921           0.1651173914074002 0.7928818096218753 1.0000   
         H         H         1.0       0.053460134465884095          0.1274796892146705 0.800921541598295  1.0000   
         C         C         1.0       0.23166170289990937           0.1276911016058483 0.8549564260618603 1.0000   
         C         C         1.0       0.24103872179653335           0.1203066511538495 0.7997154202828792 1.0000   
         H         H         1.0       0.238381816480657   0.11190110902230076           0.8858086533471815 1.0000   
         H         H         1.0       0.21042830384129257           0.13084621490680748          0.8618170565287286 1.0000   
         H         H         1.0       0.24542273508695564           0.09771548489018556          0.7993645317128907 1.0000   
         H         H         1.0       0.2603546035214347  0.12976573838636066           0.786371998793625  1.0000   
         C         C         1.0       0.2003212871207183  0.3350523319517407  0.6501684986072093 1.0000   
         C         C         1.0       0.19444703403481464           0.3038277812447919 0.6614341826727971 1.0000   
         H         H         1.0       0.19526350925725655           0.3459599138598164 0.6866371714321899 1.0000   
         H         H         1.0       0.1869114697963119  0.34221643606364993           0.6175491394212314 1.0000   
         H         H         1.0       0.1758390825180382  0.3017346358189293  0.6871331001015206 1.0000   
         H         H         1.0       0.21106601880149078           0.2959273639782236 0.6853826638909215 1.0000   
         C         C         1.0       0.14126961218723275           0.06690039318610208          0.442909555101054  1.0000   
         C         C         1.0       0.14348086824147113           0.03566348691071752          0.45332620736434376          1.0000   
         H         H         1.0       0.12150904458425905           0.07109594316161472          0.4245742168221467 1.0000   
         H         H         1.0       0.15624782418631664           0.07387925276453755          0.41507810039444487          1.0000   
         H         H         1.0       0.14480802571286563           0.02554398843036143          0.4124165745586834 1.0000   
         H         H         1.0       0.16339808779952303           0.03334971001380205          0.4748834657707929 1.0000

