data_0
_chemical_formula_structural 
                                        C6H4C38H24C6H4C38H24C6H4C38H24C6H4C38H24C6H4C38H24C6H4C38H24C6H4C38H24C6H4C38H24C6H4C38H24C6H4C38H24C6H4C38H24C6H4C38H24C6H4C38H24C6H4C38H24C6H4C38H24C6H4C38H24C6H4C38H24C6H4C38H24C6H4C38H24C6H4C38H24C6H4C38H24C6H4C38H24C6H4C38H24C6H4C38H24C6H4C38H24C6H4C38H24C6H4C38H24C6H4C38H24C6H4C38H24C6H4C38H24C6H4C38H24C6H4C38H24C2H4C2H4C2H4C2H4C2H4C2H4C2H4C2H4C2H4C2H4C2H4C2H4C2H4C2H4C2H4C2H4C2H4C2H4C2H4C2H4C2H4C2H4C2H4C2H4C2H4C2H4C2H4C2H4C2H4C2H4C2H4C2H4C2H4C2H4C2H4C2H4C2H4C2H4C2H4C2H4C2H4C2H4C2H4C2H4C2H4C2H4C2H4C2H4C2H4C2H4C2H4C2H4C2H4C2H4C2H4C2H4C2H4C2H4C2H4C2H4C2H4C2H4C2H4C2H4C2H4C2H4C2H4C2H4C2H4C2H4C2H4C2H4C2H4C2H4C2H4C2H4C2H4C2H4C2H4C2H4C2H4C2H4C2H4C2H4C2H4C2H4C2H4C2H4C2H4C2H4C2H4C2H4C2H4C2H4C2H4C2H4
_chemical_formula_sum                   'C1600 H1280'
_cell_length_a                          53.28393715367281
_cell_length_b                          53.10641995169586
_cell_length_c                          27.08772920853265
_cell_angle_alpha                       90.09933493804314
_cell_angle_beta                        90.64149207360087
_cell_angle_gamma                       89.77791471445835
_space_group_name_H-M_alt               'P 1'
_space_group_IT_number                  1
loop_
  _space_group_symop_operation_xyz
         'x, y, z' 
loop_
  _atom_site_type_symbol
  _atom_site_label
  _atom_site_symmetry_multiplicity
  _atom_site_fract_x
  _atom_site_fract_y
  _atom_site_fract_z
  _atom_site_occupancy
         C         C         1.0       0.12739890566951342           0.11155858068588971          0.5984594018375846 1.0000   
         C         C         1.0       0.11337324543781875           0.1184044861821358 0.6389015634597768 1.0000   
         C         C         1.0       0.12507164830570947           0.13282844531324037          0.6765777758467696 1.0000   
         C         C         1.0       0.150642207313754   0.138649438043123   0.6740566385861669 1.0000   
         C         C         1.0       0.16291109447310503           0.1335032031336105 0.6296783846330679 1.0000   
         C         C         1.0       0.15224671375687884           0.11873146952068142          0.595986648141069  1.0000   
         H         H         1.0       0.0952646834833841  0.1110320078220605  0.6442439354531998 1.0000   
         H         H         1.0       0.11509533571242302           0.13799104373700968          0.7093033254783745 1.0000   
         H         H         1.0       0.18096885567572868           0.1415404632500687 0.6227102095599527 1.0000   
         H         H         1.0       0.1627926695049656  0.11546363310652392           0.5608852785253824 1.0000   
         C         C         1.0       0.20353521019369822           0.1293106901683928 0.7217247147031647 1.0000   
         C         C         1.0       0.19251391722676656           0.15316028737182516          0.7236155480087171 1.0000   
         C         C         1.0       0.20820208228429188           0.17323011204570823          0.7346487326884857 1.0000   
         C         C         1.0       0.23287362922532562           0.17010408753630038          0.7432512979355117 1.0000   
         C         C         1.0       0.24294676169132257           0.14589808926881281          0.7486616315389067 1.0000   
         C         C         1.0       0.22781034748824472           0.12560477357927488          0.7334743381645725 1.0000   
         C         C         1.0       0.16329703949137667           0.1565278011855057 0.7164814796510149 1.0000   
         C         C         1.0       0.15488603448643182           0.15027716808028216          0.7726716087169507 1.0000   
         C         C         1.0       0.1567526898528054  0.16862319431014383           0.8094913108793204 1.0000   
         C         C         1.0       0.15656665479591672           0.16093866637866797          0.8591305842394247 1.0000   
         C         C         1.0       0.15295319387958828           0.13560916680632817          0.8707678330801043 1.0000   
         C         C         1.0       0.15006196559944252           0.1188228920341423 0.8351856420335882 1.0000   
         C         C         1.0       0.15027052820346568           0.12589202909325067          0.7881341298735993 1.0000   
         C         C         1.0       0.1679689939386391  0.1958266842507225  0.6565052000430948 1.0000   
         C         C         1.0       0.15834712753986913           0.21700306195060398          0.6363364010354307 1.0000   
         C         C         1.0       0.13360711312861215           0.22180482580631203          0.6384437111452044 1.0000   
         C         C         1.0       0.12143218618460813           0.2098085447163543 0.6766256773192175 1.0000   
         C         C         1.0       0.13227491975785724           0.19248900900828023          0.7067510167364393 1.0000   
         C         C         1.0       0.1550360921454619  0.18289407166054156           0.6936725731651615 1.0000   
         C         C         1.0       0.11731590468872458           0.23333965851571434          0.5959709897547308 1.0000   
         C         C         1.0       0.08644775063687204           0.30140778394187095          0.6653977986661279 1.0000   
         C         C         1.0       0.11162565558730927           0.29936701388556863          0.6526322760577025 1.0000   
         C         C         1.0       0.12030372593981163           0.27817984313286015          0.6306448510600141 1.0000   
         C         C         1.0       0.10569331045257535           0.25692934257644673          0.6237123894714312 1.0000   
         C         C         1.0       0.08151363051607338           0.2588885076724085 0.6390294189972966 1.0000   
         C         C         1.0       0.07100307390923258           0.2806963561268642 0.6586354471955732 1.0000   
         C         C         1.0       0.09746049265424093           0.21439658951550966          0.5734131643637044 1.0000   
         C         C         1.0       0.10178681755699091           0.18835342530456284          0.5714898052127345 1.0000   
         C         C         1.0       0.08752398796216898           0.17228083814573236          0.5435306700329066 1.0000   
         C         C         1.0       0.0689393053113625  0.18112032658043334           0.5119942092162848 1.0000   
         C         C         1.0       0.06501579472083852           0.20708059365576068          0.5108332837586835 1.0000   
         C         C         1.0       0.07773645310474726           0.22317272561011392          0.5416886967441136 1.0000   
         C         C         1.0       0.12359751059673271           0.25921942362346506          0.5152625779117754 1.0000   
         C         C         1.0       0.12293589221235464           0.2559836125015366 0.4644199625911328 1.0000   
         C         C         1.0       0.1327697706333776  0.23468086503104413           0.4431306198302401 1.0000   
         C         C         1.0       0.1477500341815236  0.21986057015448215           0.4700596991935668 1.0000   
         C         C         1.0       0.1474415394071274  0.22172032650464876           0.5220437441981006 1.0000   
         C         C         1.0       0.13206916827951548           0.23952295820419578          0.5457961686279738 1.0000   
         H         H         1.0       0.19129973620894156           0.11401476264043212          0.7142673191001777 1.0000   
         H         H         1.0       0.20165794524983274           0.1927578319734124 0.7348908960533888 1.0000   
         H         H         1.0       0.24597855564592241           0.18576185016412197          0.7488148248721266 1.0000   
         H         H         1.0       0.23465745437875277           0.10717629725470473          0.7384927026838548 1.0000   
         H         H         1.0       0.16331474582405528           0.18679665771747933          0.8029604680315546 1.0000   
         H         H         1.0       0.15815573536115096           0.17566868161161533          0.8855901769941733 1.0000   
         H         H         1.0       0.14609119048603914           0.09954505481188346          0.8461451626286742 1.0000   
         H         H         1.0       0.14628980357790922           0.11135533687118801          0.7605098849920194 1.0000   
         H         H         1.0       0.18663517827587814           0.1906432661798881 0.6424033607226377 1.0000   
         H         H         1.0       0.17123937037635426           0.22480114733188739          0.6107974456931405 1.0000   
         H         H         1.0       0.10155029452762238           0.21318410425864867          0.6809957536101144 1.0000   
         H         H         1.0       0.1193485490488604  0.18322514750939828           0.7307064938116188 1.0000   
         H         H         1.0       0.12215190888609036           0.3158483975200124 0.6514382157335136 1.0000   
         H         H         1.0       0.13947350532342434           0.27759763758916084          0.6164007495260091 1.0000   
         H         H         1.0       0.06850431988276529           0.24323364188232155          0.639129665198056  1.0000   
         H         H         1.0       0.05150060136117052           0.28066598718483154          0.6686150084057855 1.0000   
         H         H         1.0       0.12012403052430785           0.180644794877431  0.5836633762965125 1.0000   
         H         H         1.0       0.09469330207048299           0.1537494314100619 0.5403658929219046 1.0000   
         H         H         1.0       0.05451657685544076           0.21674472932377847          0.480953022420463  1.0000   
         H         H         1.0       0.07239977675413975           0.24350708684544028          0.5366128222924534 1.0000   
         H         H         1.0       0.11371194011701702           0.2752865618329319 0.5313480122067706 1.0000   
         H         H         1.0       0.11304142588252215           0.2693755415673036 0.44265566668408124          1.0000   
         H         H         1.0       0.15280130112268261           0.2013955854938691 0.4516294245234601 1.0000   
         H         H         1.0       0.15288687663765643           0.20584662502041878          0.5437968235882125 1.0000   
         C         C         1.0       0.04662297875919601           0.9100357143143655 0.5895497657115139 1.0000   
         C         C         1.0       0.029887212054649417          0.9271193175560131 0.6073442515285999 1.0000   
         C         C         1.0       0.03540179843790235           0.9509283418998669 0.6203367798221242 1.0000   
         C         C         1.0       0.05972206721953565           0.9600652177521245 0.6150320848709235 1.0000   
         C         C         1.0       0.07590740940388131           0.9441996295583878 0.5913771149013344 1.0000   
         C         C         1.0       0.0697773485045376  0.9200477474407445  0.5782244665367026 1.0000   
         H         H         1.0       0.011911215096031933          0.919784156946416  0.6185097115061042 1.0000   
         H         H         1.0       0.020040009475813747          0.9633847463481005 0.6334827543410401 1.0000   
         H         H         1.0       0.09443499503268152           0.9517146988151627 0.5829410585618767 1.0000   
         H         H         1.0       0.08217003210386047           0.9063580890510765 0.5641995677704654 1.0000   
         C         C         1.0       0.10909970679864982           0.9749571380582558 0.6731448605144842 1.0000   
         C         C         1.0       0.09608583390207555           0.9924979218736272 0.6420261531345278 1.0000   
         C         C         1.0       0.109306105350689   0.013659951095626344         0.6276205466654445 1.0000   
         C         C         1.0       0.1329763103567467  0.017388962310992184         0.6436700188615423 1.0000   
         C         C         1.0       0.1445405385134303  0.0011437688623157083        0.6758112040516434 1.0000   
         C         C         1.0       0.13277062629000577           0.9799403891676315 0.6922031050608993 1.0000   
         C         C         1.0       0.06805803023765092           0.9880952358021404 0.6235025678139471 1.0000   
         C         C         1.0       0.05433895603253558           0.0013790177073120802        0.665644225997866  1.0000   
         C         C         1.0       0.0452489258490143  0.025740163125905546         0.660461132590389  1.0000   
         C         C         1.0       0.026442819543899487          0.03412626369004168          0.6929134236246325 1.0000   
         C         C         1.0       0.020317875265943863          0.020469521917835465         0.735049807406507  1.0000   
         C         C         1.0       0.03515364925648701           0.9988154711765883 0.7452572025602083 1.0000   
         C         C         1.0       0.052540178115811687          0.990325015211102  0.7123990640260602 1.0000   
         C         C         1.0       0.0803253821631556  0.9963085561264624  0.5334072990021421 1.0000   
         C         C         1.0       0.07716271281145827           0.004941324531630986         0.48780810119804197          1.0000   
         C         C         1.0       0.05443702774581431           0.014977274078306957         0.47250511560240904          1.0000   
         C         C         1.0       0.03407468561339292           0.01318145751807287          0.5034890960023195 1.0000   
         C         C         1.0       0.03842620934514016           0.004431821455989748         0.5521167855934981 1.0000   
         C         C         1.0       0.06297043443329507           0.9987073758241204 0.5698833838451426 1.0000   
         C         C         1.0       0.05235146154880328           0.024481911912197285         0.41670640639485024          1.0000   
         C         C         1.0       0.09744594566316732           0.08497078735432304          0.4712436821052479 1.0000   
         C         C         1.0       0.10690609287882277           0.06691482567625684          0.4398334825790761 1.0000   
         C         C         1.0       0.09245386063320257           0.04937700941576484          0.4176674974591275 1.0000   
         C         C         1.0       0.06703471364546303           0.04910553367057391          0.4247991272682821 1.0000   
         C         C         1.0       0.05777556087585709           0.06831708698976424          0.45547393561160543          1.0000   
         C         C         1.0       0.07263950192311365           0.08366161309054365          0.48063777165039406          1.0000   
         C         C         1.0       0.024347580411453275          0.030353683379346297         0.39347784381480544          1.0000   
         C         C         1.0       0.0063011125762086895         0.01124346237746221          0.39159145992500854          1.0000   
         C         C         1.0       0.9853645615585983  0.012781359277645565         0.36132670439518433          1.0000   
         C         C         1.0       0.9795484193355801  0.03365350699101666           0.3328567231778258 1.0000   
         C         C         1.0       0.9961907617133484  0.053425281672328406         0.3364383895759391 1.0000   
         C         C         1.0       0.01928732916578957           0.05124143775307499          0.36229490323970015          1.0000   
         C         C         1.0       0.0716946340030346  0.009449647898017943         0.3288148782668439 1.0000   
         C         C         1.0       0.08037832597799202           0.9907076332002206 0.29815557921514674          1.0000   
         C         C         1.0       0.08129385700744247           0.9662301054992884 0.3146817287073093 1.0000   
         C         C         1.0       0.07300420722816145           0.9609419711316981 0.36059695749141896          1.0000   
         C         C         1.0       0.062380337186611234          0.9784929620197882 0.38996158488266924          1.0000   
         C         C         1.0       0.06380473102077264           0.004070039786274071         0.3763258165948793 1.0000   
         H         H         1.0       0.101540979112204   0.957172345263647   0.6794459285653615 1.0000   
         H         H         1.0       0.10030240706791982           0.02948733074941101          0.60932657172306   1.0000   
         H         H         1.0       0.14188533218681745           0.035464262357818965         0.634323859913869  1.0000   
         H         H         1.0       0.1420875143852609  0.966957858447102   0.7127993171234365 1.0000   
         H         H         1.0       0.05070893880339433           0.03831835637258263          0.6295591051037766 1.0000   
         H         H         1.0       0.01666481123320085           0.051721835439510366         0.6860460559982423 1.0000   
         H         H         1.0       0.03376000792165734           0.9858903372568653 0.7762802014513166 1.0000   
         H         H         1.0       0.06306212237434239           0.9725629603006056 0.7147848049304345 1.0000   
         H         H         1.0       0.09775046014412067           0.9869723654118845 0.5450913488205299 1.0000   
         H         H         1.0       0.09431348102649587           0.005218167989742506         0.4658345370693529 1.0000   
         H         H         1.0       0.015142365634291721          0.018682917116542797         0.49379231525225503          1.0000   
         H         H         1.0       0.024050999203752532          0.003450967339013289         0.5751874275894255 1.0000   
         H         H         1.0       0.12675768774014748           0.06757182323537547          0.4319331118953352 1.0000   
         H         H         1.0       0.10257600485224824           0.03404383094078889          0.3991436772461606 1.0000   
         H         H         1.0       0.03804299982928053           0.06968115280627041          0.46340863723493003          1.0000   
         H         H         1.0       0.061653373522824434          0.09772583256675739          0.4998642660702331 1.0000   
         H         H         1.0       0.010297028664007767          0.9941595364592357 0.41065630228531935          1.0000   
         H         H         1.0       0.970833804843033   0.9984183353242126  0.3583539188921343 1.0000   
         H         H         1.0       0.9925912772429598  0.06900972927058735           0.3168758363383943 1.0000   
         H         H         1.0       0.03361742112895061           0.06551289691432127          0.35992495514279865          1.0000   
         H         H         1.0       0.07226163047646092           0.029631832029793026         0.31707395422147244          1.0000   
         H         H         1.0       0.0872537449033601  0.994926509711022   0.262003607286046  1.0000   
         H         H         1.0       0.07082159245826809           0.9406395530186042 0.3717320048400163 1.0000   
         H         H         1.0       0.0561806696817001  0.9711986233106498  0.4254401285544132 1.0000   
         C         C         1.0       0.31162557920762785           0.28031041590755795          0.929193996108075  1.0000   
         C         C         1.0       0.2976130531432673  0.29237331794663346           0.8925944955374363 1.0000   
         C         C         1.0       0.27479449405864    0.28085582009669563           0.8783823756742858 1.0000   
         C         C         1.0       0.265780538664508   0.259953195901787   0.9028557110176675 1.0000   
         C         C         1.0       0.28021143432773715           0.25174984031732645          0.9428685128871611 1.0000   
         C         C         1.0       0.3020667039734054  0.2617742383234302  0.9539759291574381 1.0000   
         H         H         1.0       0.30261934874258317           0.31032434470302867          0.8753663080602402 1.0000   
         H         H         1.0       0.2650738646623839  0.28754265879414687           0.8467119628430164 1.0000   
         H         H         1.0       0.27429187032362917           0.234678776907703  0.9633969274539688 1.0000   
         H         H         1.0       0.31020460636496205           0.2554854428693802 0.9877510300566653 1.0000   
         C         C         1.0       0.2737038196003675  0.20613139106175918           0.8691215993362851 1.0000   
         C         C         1.0       0.24943908831604367           0.21319873574197873          0.8804522513322226 1.0000   
         C         C         1.0       0.2314033660574048  0.1947600937932404  0.8825698445384178 1.0000   
         C         C         1.0       0.2374673383390235  0.16979947747178623           0.87595250427414   1.0000   
         C         C         1.0       0.26031190772692864           0.16306855561677952          0.859267332896453  1.0000   
         C         C         1.0       0.27946320911518163           0.18104617426888742          0.8607465848242329 1.0000   
         C         C         1.0       0.2430602071778382  0.2436117938827102  0.8815976718147003 1.0000   
         C         C         1.0       0.2343481594927407  0.24620944246929524           0.826623098325562  1.0000   
         C         C         1.0       0.20961827902304891           0.24995930274087458          0.8137522110791651 1.0000   
         C         C         1.0       0.20192736963771568           0.257253887892735  0.7672847495365679 1.0000   
         C         C         1.0       0.21829496972382462           0.25743592967372425          0.7287316307851646 1.0000   
         C         C         1.0       0.24313440998295094           0.25409643500228807          0.7400736412327121 1.0000   
         C         C         1.0       0.25149778954166846           0.2481108111481975 0.7872425283935423 1.0000   
         C         C         1.0       0.21708594685981566           0.23958051668189256          0.960460726246408  1.0000   
         C         C         1.0       0.19984187485761082           0.24849951395225683          0.9930375794376224 1.0000   
         C         C         1.0       0.1904098728030043  0.2724483512934097  0.9885586992725816 1.0000   
         C         C         1.0       0.197532617042923   0.28666628534468563           0.9501093947354441 1.0000   
         C         C         1.0       0.2143460645957169  0.27827920362145186           0.9173317807054767 1.0000   
         C         C         1.0       0.22398820392084595           0.25343181563625033          0.9211786204270475 1.0000   
         C         C         1.0       0.17029189913859658           0.28272671263415117          0.027097172710772055         1.0000   
         C         C         1.0       0.09904172691322626           0.29615849177821335          0.9480742585600194 1.0000   
         C         C         1.0       0.11052200295996761           0.27264751353456473          0.9462832563446527 1.0000   
         C         C         1.0       0.13399256976070759           0.2693205601125305 0.9667482734501108 1.0000   
         C         C         1.0       0.14684571243418507           0.2890588408883904 0.9875594152813788 1.0000   
         C         C         1.0       0.1367886501614958  0.3123486649404559  0.9824135498296865 1.0000   
         C         C         1.0       0.11359314710191189           0.3166946606946187 0.9624031984651821 1.0000   
         C         C         1.0       0.17826015242259255           0.30816788160943476          0.056452592304987226         1.0000   
         C         C         1.0       0.20269444880331064           0.31816688051731745          0.05440265535219102          1.0000   
         C         C         1.0       0.20945036027907854           0.3395871899190338 0.07887637509403156          1.0000   
         C         C         1.0       0.19160708349600503           0.3506642149335176 0.10989523616080477          1.0000   
         C         C         1.0       0.16798943328020072           0.3410978002033227 0.11329942913719115          1.0000   
         C         C         1.0       0.1617284966744456  0.3195301689903488  0.08748735779153982          1.0000   
         C         C         1.0       0.1402159123413783  0.2560318870052424  0.07951049631599738          1.0000   
         C         C         1.0       0.1350375549150671  0.24197431598962513           0.12228249974854663          1.0000   
         C         C         1.0       0.15229458518782618           0.2387001125247117 0.15857655759040976          1.0000   
         C         C         1.0       0.17632507760383442           0.24883395591050808          0.15144826410752754          1.0000   
         C         C         1.0       0.1824731894427821  0.25958593348311654           0.10811353870231177          1.0000   
         C         C         1.0       0.164859293199811   0.2644525744762982  0.07217482231028627          1.0000   
         H         H         1.0       0.2869400712024378  0.22063034696099035           0.866107142429695  1.0000   
         H         H         1.0       0.2131362275976117  0.2021211520928848  0.89443477089608   1.0000   
         H         H         1.0       0.22322666534931168           0.15653070311032075          0.8764529711730229 1.0000   
         H         H         1.0       0.29880850171292606           0.17664335619168456          0.8507104895311701 1.0000   
         H         H         1.0       0.19541590060716432           0.252175762676432  0.8412367556120919 1.0000   
         H         H         1.0       0.18216379952610326           0.2627298443305249 0.7617774064584244 1.0000   
         H         H         1.0       0.2586007552405859  0.25666404949966637           0.7135679180945854 1.0000   
         H         H         1.0       0.27170565882294195           0.24624445927464267          0.7966516142917244 1.0000   
         H         H         1.0       0.2242179139607728  0.2212794294365568  0.970992494444437  1.0000   
         H         H         1.0       0.195642028663715   0.23637733265290634           0.023391622463393658         1.0000   
         H         H         1.0       0.18984980534550808           0.3047424940551494 0.941297042410224  1.0000   
         H         H         1.0       0.21951062011948688           0.2894875013925541 0.8868898699675963 1.0000   
         H         H         1.0       0.09960615572713818           0.25714313837693553          0.9321082766669782 1.0000   
         H         H         1.0       0.14079501287463075           0.24940202668545663          0.9725023927921418 1.0000   
         H         H         1.0       0.14795303880528604           0.3267434425516239 0.9929375155538748 1.0000   
         H         H         1.0       0.10436595336351738           0.3344667012458832 0.9661661962273759 1.0000   
         H         H         1.0       0.2168820395329807  0.3067381100264469  0.039093298022637724         1.0000   
         H         H         1.0       0.22863932346231802           0.34715400792235585          0.07997295253125225          1.0000   
         H         H         1.0       0.15591623628074763           0.3475678945325402 0.14262871974597094          1.0000   
         H         H         1.0       0.14269607671192674           0.31142346592806847          0.09015962507834296          1.0000   
         H         H         1.0       0.12539434478686412           0.2588567694936351 0.05580799105757661          1.0000   
         H         H         1.0       0.11659801689755087           0.23366777824361581          0.13099221659740037          1.0000   
         H         H         1.0       0.19032527328655688           0.24990931140914804          0.18270300657678865          1.0000   
         H         H         1.0       0.20058964027875795           0.2670604184983785 0.10286297764023233          1.0000   
         C         C         1.0       0.5422689613524765  0.3355904044402159  0.5995870554616122 1.0000   
         C         C         1.0       0.530706109486196   0.35819707274359797           0.5954593131782282 1.0000   
         C         C         1.0       0.5083402960864438  0.36431340406999924           0.6175014030625519 1.0000   
         C         C         1.0       0.4976525882545133  0.3472614998072288  0.6506620664839753 1.0000   
         C         C         1.0       0.5073536212803034  0.32314236167638516           0.6534288976159148 1.0000   
         C         C         1.0       0.5313204897354329  0.3184326168561441  0.6322700728139734 1.0000   
         H         H         1.0       0.5384942010725683  0.36931444941378855           0.5687592903015982 1.0000   
         H         H         1.0       0.49983766303987354           0.3812246101185879 0.6089366972536487 1.0000   
         H         H         1.0       0.5000146997521144  0.3093294110513412  0.6784716784688049 1.0000   
         H         H         1.0       0.5405195010666751  0.3009965929776323  0.6397872258535574 1.0000   
         C         C         1.0       0.44389300149056005           0.3209407035993317 0.6473708677248257 1.0000   
         C         C         1.0       0.45352311911381177           0.34498619687677523          0.6440235000599801 1.0000   
         C         C         1.0       0.4451294394832983  0.3601404834799324  0.6041175930430551 1.0000   
         C         C         1.0       0.43039975778557366           0.35000592531851826          0.5671073729664874 1.0000   
         C         C         1.0       0.42491676438730586           0.32454273065802364          0.5675497095875781 1.0000   
         C         C         1.0       0.4310603855179771  0.3104783731383285  0.6083296682386664 1.0000   
         C         C         1.0       0.47302626991454294           0.35650536167920543          0.6806756758833629 1.0000   
         C         C         1.0       0.4755778528149237  0.38515072321644733           0.6985408259079636 1.0000   
         C         C         1.0       0.49676151794972095           0.3917805130485232 0.7267461891334287 1.0000   
         C         C         1.0       0.5003401939697519  0.4157347121005529  0.744004314807423  1.0000   
         C         C         1.0       0.48298862617756644           0.4342409072611701 0.7345187538046066 1.0000   
         C         C         1.0       0.46170573136168913           0.4277468374799141 0.7078192809020578 1.0000   
         C         C         1.0       0.45780375183315425           0.40362396168624876          0.6915273304457431 1.0000   
         C         C         1.0       0.4451820598555914  0.34730289871945125           0.7577387567961061 1.0000   
         C         C         1.0       0.44130514269486354           0.33764822194379607          0.8042825114463077 1.0000   
         C         C         1.0       0.4604121299643245  0.3266673202526023  0.8321983306584697 1.0000   
         C         C         1.0       0.4830735302640599  0.32181958041501224           0.8088220960463961 1.0000   
         C         C         1.0       0.4872963190571643  0.3321907679167133  0.7645801099268912 1.0000   
         C         C         1.0       0.4683944402309344  0.34350888032484345           0.7354921111259262 1.0000   
         C         C         1.0       0.45631899842257584           0.3224805633332464 0.8892037650180648 1.0000   
         C         C         1.0       0.38236271290571194           0.2915283896114743 0.9312590632221203 1.0000   
         C         C         1.0       0.39443644696895336           0.30790994455041554          0.9632938884333097 1.0000   
         C         C         1.0       0.4183154763709031  0.31675557214427646           0.9522540847808085 1.0000   
         C         C         1.0       0.4290981232327465  0.3114282874459719  0.905097740305077  1.0000   
         C         C         1.0       0.4148276567597334  0.29610499495124626           0.8731546676508781 1.0000   
         C         C         1.0       0.3912091721285367  0.28745434910227696           0.8866784638370705 1.0000   
         C         C         1.0       0.46121974187617737           0.3505899438637871 0.9055277452396753 1.0000   
         C         C         1.0       0.48609978197807097           0.359886542657464  0.9097037533665089 1.0000   
         C         C         1.0       0.49060590123412795           0.38568811176272205          0.9170744460906505 1.0000   
         C         C         1.0       0.47027965363840524           0.40217929777070915          0.9174620289305346 1.0000   
         C         C         1.0       0.44686487065267383           0.3940841825612345 0.909794708210984  1.0000   
         C         C         1.0       0.4418402365763457  0.36881083171825835           0.900324469677667  1.0000   
         C         C         1.0       0.4823772095648186  0.30206409330338624           0.9600757788981557 1.0000   
         C         C         1.0       0.49689996763732674           0.28469633309580217          0.9814200507413432 1.0000   
         C         C         1.0       0.49743196850396015           0.2608764749466502 0.960101532433097  1.0000   
         C         C         1.0       0.48787442453548563           0.2572200972352997 0.9122359392379943 1.0000   
         C         C         1.0       0.4749428410496408  0.27703588452726385           0.8886557564036637 1.0000   
         C         C         1.0       0.4726454961900003  0.2996483767579698  0.9124090846515541 1.0000   
         H         H         1.0       0.449660931151076   0.30826353480147184           0.6779357288341709 1.0000   
         H         H         1.0       0.4532771609226493  0.3789091826487013  0.5998561848575998 1.0000   
         H         H         1.0       0.4251679836708788  0.36159884333129616           0.5383223798905248 1.0000   
         H         H         1.0       0.4254857527429518  0.29078776069011925           0.6148499412647173 1.0000   
         H         H         1.0       0.5132189609538108  0.38000104802597184           0.730629320524452  1.0000   
         H         H         1.0       0.5161514419210718  0.4211928787329524  0.7653349584391665 1.0000   
         H         H         1.0       0.4488249264977958  0.4421724021467023  0.6981354622053344 1.0000   
         H         H         1.0       0.4405935393358257  0.4001994825297423  0.6725335315286451 1.0000   
         H         H         1.0       0.43151049761085736           0.358884791191275  0.737800809643058  1.0000   
         H         H         1.0       0.42356284339817574           0.3417526788796552 0.8204280549712372 1.0000   
         H         H         1.0       0.4998114161349779  0.31263473702454275           0.8297379945135598 1.0000   
         H         H         1.0       0.5059493408618828  0.33038621374372845           0.7495084949516498 1.0000   
         H         H         1.0       0.3858445009902538  0.3118324679789917  0.9981043558190559 1.0000   
         H         H         1.0       0.4298942936391291  0.32621287152221323           0.9799113648537865 1.0000   
         H         H         1.0       0.4232785120167115  0.28972251067862553           0.8383663650043781 1.0000   
         H         H         1.0       0.3829305749893578  0.2741032515947087  0.8605433909688192 1.0000   
         H         H         1.0       0.5023575689290931  0.34818493525397337           0.9096694017137493 1.0000   
         H         H         1.0       0.5092319817583508  0.3929070179548986  0.9232797238278334 1.0000   
         H         H         1.0       0.43068547417383163           0.4082876443068737 0.9141447037573512 1.0000   
         H         H         1.0       0.4235700419770255  0.3642105926682884  0.8889736240181112 1.0000   
         H         H         1.0       0.48015330450069676           0.3191098182944664 0.981547753518608  1.0000   
         H         H         1.0       0.5043431252460946  0.28723008847796194           0.018118280232013007         1.0000   
         H         H         1.0       0.49107789732194806           0.23992472221152253          0.8902531910987671 1.0000   
         H         H         1.0       0.4696387841852179  0.27290565194513294           0.8533650827855738 1.0000   
         C         C         1.0       0.04154189907967187           0.8747410711431497 0.3935299960906366 1.0000   
         C         C         1.0       0.049936651954556766          0.8939090426836304 0.3637428886696055 1.0000   
         C         C         1.0       0.03278988356440138           0.9071260283118049 0.33505030010251563          1.0000   
         C         C         1.0       0.007442287503092171          0.902284425137814  0.3374087845902411 1.0000   
         C         C         1.0       0.9991778742750042  0.8846368124263931  0.3729327213100626 1.0000   
         C         C         1.0       0.01608327620377148           0.8708838602976666 0.39695417680041983          1.0000   
         H         H         1.0       0.06883984274943099           0.8957897179056479 0.3572056742154846 1.0000   
         H         H         1.0       0.04049749359794097           0.9174281062153127 0.3045491068070088 1.0000   
         H         H         1.0       0.9805642507425264  0.8803902924429349  0.37618988687637445          1.0000   
         H         H         1.0       0.009308949739206707          0.8570318118059012 0.42026941767774784          1.0000   
         C         C         1.0       0.9723419791440633  0.8688952265557919  0.2589488225701612 1.0000   
         C         C         1.0       0.9895675437299506  0.8894776353243927  0.2574774567852063 1.0000   
         C         C         1.0       0.00774669139382822           0.8885865231864615 0.2214273493926875 1.0000   
         C         C         1.0       0.008214598922517968          0.8712270499577242 0.18506558476014287          1.0000   
         C         C         1.0       0.9907179517459858  0.8521370926070616  0.18611560139953162          1.0000   
         C         C         1.0       0.9730655904144343  0.8511213899179437  0.2221204120236741 1.0000   
         C         C         1.0       0.9884952804203616  0.9121578744054388  0.29456551932146924          1.0000   
         C         C         1.0       0.993981793359286   0.9385231173515608  0.26665429714374683          1.0000   
         C         C         1.0       0.006997929601025854          0.9579199539455412 0.28948133076750066          1.0000   
         C         C         1.0       0.011326889477466295          0.9796053651488073 0.2671333255661185 1.0000   
         C         C         1.0       0.0030359071407755067         0.9826824612469459 0.2185180880490943 1.0000   
         C         C         1.0       0.9895043687466372  0.9638197786380259  0.19506410087288545          1.0000   
         C         C         1.0       0.9856074040449009  0.9415323762005873  0.217372754940205  1.0000   
         C         C         1.0       0.9406129247255168  0.9154899951223557  0.29275302064462555          1.0000   
         C         C         1.0       0.91852003220895    0.9225642953677974  0.3121880057482922 1.0000   
         C         C         1.0       0.9159879407080054  0.930755815067332   0.35946393067237603          1.0000   
         C         C         1.0       0.9380795150691826  0.9336869030009755  0.3868919195077331 1.0000   
         C         C         1.0       0.9605804273432672  0.9278887575614839  0.36570716119216945          1.0000   
         C         C         1.0       0.9617693252182812  0.9183047881077299  0.3197065281442013 1.0000   
         C         C         1.0       0.8907567352198256  0.9443694613142473  0.37437039945895295          1.0000   
         C         C         1.0       0.8188099647526104  0.9121721735977265  0.33976880106539586          1.0000   
         C         C         1.0       0.8390258075275543  0.8970950273803054  0.3491596964381936 1.0000   
         C         C         1.0       0.8631955162474583  0.9061818302856276  0.3537538522250319 1.0000   
         C         C         1.0       0.8666681269290852  0.9320213167242958  0.3504160112847318 1.0000   
         C         C         1.0       0.8468121270450985  0.9483556698449354  0.33832831917213385          1.0000   
         C         C         1.0       0.822511058800333   0.9380219168400301  0.3364786120646218 1.0000   
         C         C         1.0       0.8975678429382372  0.9729230142073305  0.3600790777052577 1.0000   
         C         C         1.0       0.9107276329765268  0.9870041230979174  0.3937495672684931 1.0000   
         C         C         1.0       0.9208966849150203  0.0102509641447881  0.38222477139498373          1.0000   
         C         C         1.0       0.9182027718968945  0.019625615784568007         0.3348034448259489 1.0000   
         C         C         1.0       0.903462360590051   0.005526508121878271         0.30173601131861927          1.0000   
         C         C         1.0       0.8936820917970809  0.9826162468586419  0.31334749313724686          1.0000   
         C         C         1.0       0.8696647316875891  0.9607006661835547  0.456338950698364  1.0000   
         C         C         1.0       0.8614479192759142  0.9573673815090349  0.5040701269337481 1.0000   
         C         C         1.0       0.8662630573637597  0.9345368489591835  0.5266492894848075 1.0000   
         C         C         1.0       0.8814970558504239  0.91678953902746    0.5043741414449038 1.0000   
         C         C         1.0       0.891477824952336   0.9219040205327936  0.45970258598192   1.0000   
         C         C         1.0       0.8851340208291957  0.9435592722702849  0.4323770009949813 1.0000   
         H         H         1.0       0.9565976994632546  0.8673918006589009  0.28326345122948676          1.0000   
         H         H         1.0       0.022338398126377612          0.9028965813798975 0.22017402095968824          1.0000   
         H         H         1.0       0.02382868191447951           0.8721187043008447 0.1600621539471431 1.0000   
         H         H         1.0       0.9581605213179952  0.8360143548474704  0.21906311151753977          1.0000   
         H         H         1.0       0.014546800245373692          0.9549110505058847 0.3283612874142312 1.0000   
         H         H         1.0       0.021168052244616264          0.9942678044709359 0.2878814200149135 1.0000   
         H         H         1.0       0.9811134660684333  0.9670761709070205  0.15957204918088164          1.0000   
         H         H         1.0       0.9760062737794215  0.9260090375667427  0.1963960436850115 1.0000   
         H         H         1.0       0.940557028176928   0.9092421338126567  0.25569857747577723          1.0000   
         H         H         1.0       0.9027203585004304  0.9218570968802555  0.28506348110712193          1.0000   
         H         H         1.0       0.9398266925286314  0.9429269936511612  0.4222368086613853 1.0000   
         H         H         1.0       0.9779344564965375  0.9321791932401443  0.39056395404763494          1.0000   
         H         H         1.0       0.8370267042225197  0.8766178482418977  0.3491011336456329 1.0000   
         H         H         1.0       0.8778173286876535  0.8933325821222743  0.3649005474723905 1.0000   
         H         H         1.0       0.8489056362983401  0.9688394926387126  0.33867619101321866          1.0000   
         H         H         1.0       0.8067781338600397  0.9506371175763954  0.32879472090115475          1.0000   
         H         H         1.0       0.9175028642566742  0.9795735543055498  0.4299545429759555 1.0000   
         H         H         1.0       0.9306985549773407  0.01897990160487173           0.4121707230108566 1.0000   
         H         H         1.0       0.9029059902867075  0.013390077905171216         0.2645120166612042 1.0000   
         H         H         1.0       0.8857953072100048  0.97279134817244    0.28211674542051807          1.0000   
         H         H         1.0       0.8648215162237494  0.9785234121124404  0.4412157749677392 1.0000   
         H         H         1.0       0.8526345123807122  0.9737136191868012  0.5214921358657811 1.0000   
         H         H         1.0       0.8856211079691501  0.8998018397583307  0.5221248841095161 1.0000   
         H         H         1.0       0.8995484699046181  0.9058366566208274  0.44090599654313384          1.0000   
         C         C         1.0       0.7560202848103416  0.8764411744647627  0.3733534094353583 1.0000   
         C         C         1.0       0.7346552049945415  0.8904947382658062  0.3652895982692582 1.0000   
         C         C         1.0       0.7119909271011116  0.8788988761404364  0.3578751616714662 1.0000   
         C         C         1.0       0.710500244318593   0.8525274160458197  0.35570764540957817          1.0000   
         C         C         1.0       0.7321842010953625  0.8387963651399197  0.36570806859012067          1.0000   
         C         C         1.0       0.7542529015370157  0.8509029949653328  0.3779637969272609 1.0000   
         H         H         1.0       0.7373962495478359  0.9111267960785129  0.35797536985356004          1.0000   
         H         H         1.0       0.6948930687295364  0.8903993541574179  0.3513400415878132 1.0000   
         H         H         1.0       0.7318153927988617  0.8190263881532545  0.37523697136934964          1.0000   
         H         H         1.0       0.7709842077819874  0.8410808125398868  0.3875112774402952 1.0000   
         C         C         1.0       0.7013207062324144  0.8063212027573955  0.28930844555928703          1.0000   
         C         C         1.0       0.6851612775487429  0.8127867483354432  0.3278798978463925 1.0000   
         C         C         1.0       0.66743956956364    0.7953028521645267  0.34097234058752535          1.0000   
         C         C         1.0       0.6642115704163746  0.7729511093030658  0.3177288961240169 1.0000   
         C         C         1.0       0.6793142788749753  0.7674494815831368  0.2779193660927263 1.0000   
         C         C         1.0       0.6970289186403309  0.7848310459916219  0.26455198368583593          1.0000   
         C         C         1.0       0.6836295921810596  0.8405010276515626  0.3467629104274633 1.0000   
         C         C         1.0       0.6683010360704352  0.8523898160432567  0.3041367515283615 1.0000   
         C         C         1.0       0.6418931602844319  0.8482213933517988  0.3040589520046541 1.0000   
         C         C         1.0       0.6269472488561757  0.8550066152478993  0.26400281671986664          1.0000   
         C         C         1.0       0.6377153047121179  0.8667239088542885  0.22288945561710657          1.0000   
         C         C         1.0       0.6629660895403173  0.8702446825791506  0.22263127102383276          1.0000   
         C         C         1.0       0.676614986470886   0.865460661867599   0.2638548933975911 1.0000   
         C         C         1.0       0.6829850930171673  0.8268859641269597  0.43983683775713056          1.0000   
         C         C         1.0       0.678160590025243   0.8316725212112153  0.488415934480092  1.0000   
         C         C         1.0       0.6664386005952886  0.8540296771780959  0.5023874963696873 1.0000   
         C         C         1.0       0.6525042380243766  0.8668345675997542  0.46422001621190706          1.0000   
         C         C         1.0       0.6574232889499617  0.8626706857379752  0.41594409438155416          1.0000   
         C         C         1.0       0.6726554143634333  0.8425261464466729  0.40220034422997947          1.0000   
         C         C         1.0       0.6622151885502694  0.8573106725085976  0.5604729537467397 1.0000   
         C         C         1.0       0.5938123939361769  0.8117820725135543  0.5502101623609248 1.0000   
         C         C         1.0       0.6161730529791019  0.801090742268897   0.5668351878118877 1.0000   
         C         C         1.0       0.6373252529314744  0.8156240036213956  0.573060253911982  1.0000   
         C         C         1.0       0.6370210758892331  0.8421813896529522  0.566608647506902  1.0000   
         C         C         1.0       0.6136908323657981  0.8515992273601668  0.5512306187728199 1.0000   
         C         C         1.0       0.5930933615418613  0.8369868344751488  0.5410483204086887 1.0000   
         C         C         1.0       0.6601207814656317  0.8870542636281638  0.572638296394712  1.0000   
         C         C         1.0       0.6745290476064532  0.903929730539051   0.5467228752247596 1.0000   
         C         C         1.0       0.6731114115197594  0.9293351739011659  0.5531570212493391 1.0000   
         C         C         1.0       0.6530552433655441  0.9384489723126397  0.5776788360450048 1.0000   
         C         C         1.0       0.6377397665941253  0.9224554702864763  0.6024567626936627 1.0000   
         C         C         1.0       0.6421186974620234  0.8972486348486199  0.6015030315622835 1.0000   
         C         C         1.0       0.6842034497395462  0.8370836567786031  0.638308999320344  1.0000   
         C         C         1.0       0.7037863315079926  0.8276355093002226  0.6637604576716378 1.0000   
         C         C         1.0       0.7274512427449367  0.8306749217998667  0.6458766170024469 1.0000   
         C         C         1.0       0.7300867992213096  0.8426804124559724  0.601682379297065  1.0000   
         C         C         1.0       0.7097609605551123  0.8529558414653683  0.5768980678216936 1.0000   
         C         C         1.0       0.6860774127013816  0.8484428134574249  0.5934272579351277 1.0000   
         H         H         1.0       0.7113137677592614  0.8224774219184863  0.27298680848151974          1.0000   
         H         H         1.0       0.6541667938029485  0.8007851676806859  0.3671987650896345 1.0000   
         H         H         1.0       0.6474893214803643  0.7623408828496211  0.32346468471159223          1.0000   
         H         H         1.0       0.7055537279296126  0.7834466283307481  0.22967317040781257          1.0000   
         H         H         1.0       0.6324915117060838  0.8409600059182324  0.33530289838288246          1.0000   
         H         H         1.0       0.6067874344508775  0.8500290773229727  0.26772275583544297          1.0000   
         H         H         1.0       0.6721309897179201  0.8778192337972943  0.18973414613721357          1.0000   
         H         H         1.0       0.6964154496713615  0.8674188460095094  0.25985003266656687          1.0000   
         H         H         1.0       0.6918835676617825  0.8084348551744761  0.43267077416514865          1.0000   
         H         H         1.0       0.6833450280141655  0.818159895769767   0.5176144319828034 1.0000   
         H         H         1.0       0.640902927470069   0.8840858906087566  0.4758823110102676 1.0000   
         H         H         1.0       0.6514555205596151  0.877966017475332   0.39125798351994756          1.0000   
         H         H         1.0       0.6187171470070654  0.7815074458334725  0.5647545461420634 1.0000   
         H         H         1.0       0.6543395967608259  0.8053539325987109  0.57304529369419   1.0000   
         H         H         1.0       0.6125269170534079  0.870640687374475   0.5406926906365401 1.0000   
         H         H         1.0       0.5749184914223154  0.8456005571857221  0.5307209491960927 1.0000   
         H         H         1.0       0.6893219540178215  0.8964481123524073  0.5225739086294584 1.0000   
         H         H         1.0       0.6847779533577962  0.9419320587511507  0.536078388664093  1.0000   
         H         H         1.0       0.6209863743966627  0.9294115433643227  0.6211827138940584 1.0000   
         H         H         1.0       0.6308560876937053  0.8865565931148192  0.6250578554119066 1.0000   
         H         H         1.0       0.6674899927583001  0.836703469394783   0.6572598430185523 1.0000   
         H         H         1.0       0.7000682591770281  0.8182554004797309  0.6985906768544822 1.0000   
         H         H         1.0       0.7483566702565044  0.8472943091858115  0.5855104026076902 1.0000   
         H         H         1.0       0.7137351050110844  0.8641652605489768  0.5440610883292671 1.0000   
         C         C         1.0       0.6150275130931073  0.6041219757591978  0.13096835409558621          1.0000   
         C         C         1.0       0.5951556185883011  0.6101119228804545  0.16157714461286352          1.0000   
         C         C         1.0       0.586176487352697   0.6344587361254581  0.16312959220493953          1.0000   
         C         C         1.0       0.595586744848565   0.6530551361949265  0.13308682159813925          1.0000   
         C         C         1.0       0.6163561189027825  0.6469878582175745  0.10420765644719708          1.0000   
         C         C         1.0       0.6259358741711143  0.6231473903786554  0.10358633322553318          1.0000   
         H         H         1.0       0.5885363855413055  0.5946635509216188  0.18540254861044153          1.0000   
         H         H         1.0       0.5707606336757832  0.6369610992120843  0.18594788579721752          1.0000   
         H         H         1.0       0.6242521567736572  0.6603200399252572  0.0791121149468643 1.0000   
         H         H         1.0       0.6401677085518832  0.6165501705350671  0.07628440401574056          1.0000   
         C         C         1.0       0.6069055746655522  0.6987771938278151  0.1918274950480845 1.0000   
         C         C         1.0       0.6026757393294621  0.6978078084429307  0.14107983987502212          1.0000   
         C         C         1.0       0.6173411266400924  0.7134095749012119  0.11229309639544427          1.0000   
         C         C         1.0       0.6324674127937243  0.7315944660446739  0.1334820065546065 1.0000   
         C         C         1.0       0.6363361788373436  0.7318594587512554  0.1827434648299899 1.0000   
         C         C         1.0       0.6227715507774402  0.716297195199889   0.21324170706553847          1.0000   
         C         C         1.0       0.5806188180771437  0.6791539164634867  0.12397289737960626          1.0000   
         C         C         1.0       0.5547809539288178  0.6833157044268064  0.1494403182412423 1.0000   
         C         C         1.0       0.5362989236876489  0.6658750867542834  0.1458361613825284 1.0000   
         C         C         1.0       0.5136628177004351  0.6693873047237268  0.16496605441084158          1.0000   
         C         C         1.0       0.5068334528094919  0.6940943088404873  0.18076151545088498          1.0000   
         C         C         1.0       0.5249414252058554  0.7115231752071027  0.18884154071519463          1.0000   
         C         C         1.0       0.5490597095649906  0.7069476214379742  0.17173573827290772          1.0000   
         C         C         1.0       0.5661391951660952  0.7085486042322134  0.05303177923249529          1.0000   
         C         C         1.0       0.5537706958648604  0.7106381258183667  0.008100914609234344         1.0000   
         C         C         1.0       0.5578887269310456  0.694122008695682   0.9706106742887743 1.0000   
         C         C         1.0       0.5689137569740046  0.6716457231719312  0.9848147245973357 1.0000   
         C         C         1.0       0.5738369871299291  0.6663799070914084  0.033194908679566426         1.0000   
         C         C         1.0       0.5735003487466275  0.6849984316590215  0.0697283017191086 1.0000   
         C         C         1.0       0.545779021929743   0.6967962337091466  0.9155294076619347 1.0000   
         C         C         1.0       0.55438415111998    0.7708789919776461  0.8470458862537552 1.0000   
         C         C         1.0       0.570655383151135   0.7634445641922962  0.8833744240825512 1.0000   
         C         C         1.0       0.5690703503056141  0.7402355917152572  0.9039839259624759 1.0000   
         C         C         1.0       0.549902851392409   0.724274683262846   0.8930774808629922 1.0000   
         C         C         1.0       0.5336157359191231  0.7308438179297518  0.8520221229062888 1.0000   
         C         C         1.0       0.536319423574847   0.7543192070743197  0.8325213306801029 1.0000   
         C         C         1.0       0.5184975421814485  0.6873612679303339  0.9292083155228835 1.0000   
         C         C         1.0       0.515109254740323   0.662548256676141   0.9408924702406332 1.0000   
         C         C         1.0       0.4928759397278652  0.6535795716519236  0.9557605263605724 1.0000   
         C         C         1.0       0.4725347476202223  0.6702058807506314  0.9621479331228174 1.0000   
         C         C         1.0       0.4754772797228626  0.6948949302813315  0.9488940341207877 1.0000   
         C         C         1.0       0.49748282350647866           0.7031698018442175 0.9305507893660826 1.0000   
         C         C         1.0       0.5494427916279858  0.6631996984049413  0.8446982414474062 1.0000   
         C         C         1.0       0.5632703427444208  0.6449675924855621  0.8203560201498371 1.0000   
         C         C         1.0       0.5892139904927031  0.6453146096288801  0.820796258145667  1.0000   
         C         C         1.0       0.6017681749870575  0.6633145721668259  0.8462357660217882 1.0000   
         C         C         1.0       0.587979201088902   0.6805109199313757  0.8727731020700927 1.0000   
         C         C         1.0       0.5617854740733471  0.6794468712133109  0.8771488414407411 1.0000   
         H         H         1.0       0.5966245739817281  0.6888855432048532  0.21738302233852455          1.0000   
         H         H         1.0       0.6162108333208706  0.714604731891369   0.0715964075142885 1.0000   
         H         H         1.0       0.6424493550021942  0.7444408460413345  0.10975501440810165          1.0000   
         H         H         1.0       0.6239711911946823  0.7181619065943902  0.25195020611560887          1.0000   
         H         H         1.0       0.5382289199153385  0.6474801162321708  0.1272514556682618 1.0000   
         H         H         1.0       0.49898693737228866           0.6565923691619895 0.1545077990730001 1.0000   
         H         H         1.0       0.5222794174667201  0.7295011190397105  0.20662899088759396          1.0000   
         H         H         1.0       0.5622325403010392  0.7225965295477448  0.17162558462280966          1.0000   
         H         H         1.0       0.5663449570471862  0.7240419014384408  0.07965047045903052          1.0000   
         H         H         1.0       0.5479346268151357  0.7292283370609649  0.9979459008807817 1.0000   
         H         H         1.0       0.571315333309771   0.6556844195234389  0.9580842583214039 1.0000   
         H         H         1.0       0.5773535090603193  0.6474900745126869  0.04357420072348229          1.0000   
         H         H         1.0       0.5871809773869485  0.775389304760762   0.8938699187637044 1.0000   
         H         H         1.0       0.5845685241904919  0.7363789674636894  0.9295824611936905 1.0000   
         H         H         1.0       0.5223722635120621  0.7167676072775091  0.8310862635607318 1.0000   
         H         H         1.0       0.52154557095243    0.7612533461043806  0.8085472532357649 1.0000   
         H         H         1.0       0.5329187480914371  0.6502367980011139  0.9397070569415781 1.0000   
         H         H         1.0       0.4919665088857412  0.633915618621199   0.9667170645939362 1.0000   
         H         H         1.0       0.4604631849577414  0.7090140748096779  0.9543989784919358 1.0000   
         H         H         1.0       0.49966606389086604           0.7231004749956826 0.9220783171477068 1.0000   
         H         H         1.0       0.5299025250083268  0.6610525858757426  0.8393789934158794 1.0000   
         H         H         1.0       0.5539067946206006  0.6299474077697511  0.7992454142922665 1.0000   
         H         H         1.0       0.6220879269809678  0.6619355748628934  0.8443727744957038 1.0000   
         H         H         1.0       0.598892927192987   0.692128010992713   0.8977874171251599 1.0000   
         C         C         1.0       0.5825465000931472  0.3018918438560615  0.07359782142868544          1.0000   
         C         C         1.0       0.5587136897325049  0.3083646380510071  0.07863352293970872          1.0000   
         C         C         1.0       0.5518496028360241  0.33305324002728176           0.08909860395931171          1.0000   
         C         C         1.0       0.5697849470261402  0.3521343348492572  0.09476395097958693          1.0000   
         C         C         1.0       0.5943776303720905  0.34572886282762577           0.08872186110085321          1.0000   
         C         C         1.0       0.6003989980608481  0.3208155214178034  0.07810242512837705          1.0000   
         H         H         1.0       0.5444424905563938  0.2941544509555604  0.07701123099106123          1.0000   
         H         H         1.0       0.5330756016213614  0.33574073299127144           0.10234570741768391          1.0000   
         H         H         1.0       0.6089122895781519  0.3586584068078154  0.09614989183034933          1.0000   
         H         H         1.0       0.6208256347018823  0.31602232841959693           0.07308882731344432          1.0000   
         C         C         1.0       0.5585990045911596  0.35719810457914336           0.19640352106603276          1.0000   
         C         C         1.0       0.5705589651302472  0.37600272709089555           0.17121026878711829          1.0000   
         C         C         1.0       0.5921101434754202  0.3871205513503678  0.1916004134090048 1.0000   
         C         C         1.0       0.6024756697054647  0.37832266486596133           0.23464168800624954          1.0000   
         C         C         1.0       0.5915478453032138  0.35747220012227393           0.2551986321955905 1.0000   
         C         C         1.0       0.5692536318942724  0.3471685366889424  0.237152074693061  1.0000   
         C         C         1.0       0.5626341555271275  0.37994768446378535           0.1151245120287227 1.0000   
         C         C         1.0       0.5340667183780928  0.3878694080891324  0.1069092683089464 1.0000   
         C         C         1.0       0.5244087475884657  0.3872672990074356  0.05946839983727179          1.0000   
         C         C         1.0       0.4998181730742216  0.3918388142761022  0.049635657633227484         1.0000   
         C         C         1.0       0.4843755383522255  0.39665749050639354           0.08875344464940943          1.0000   
         C         C         1.0       0.4932261556007921  0.39783930864648437           0.13586085692465713          1.0000   
         C         C         1.0       0.5183491721561788  0.39508908334571957           0.14374137779073812          1.0000   
         C         C         1.0       0.5737692243100514  0.42750192016798133           0.10599812855112252          1.0000   
         C         C         1.0       0.5785932374561781  0.44860618572882777           0.07750420486195535          1.0000   
         C         C         1.0       0.586580535200321   0.4451372832199374  0.029752483151574975         1.0000   
         C         C         1.0       0.5915837678410998  0.42083083838605767           0.012217156914363205         1.0000   
         C         C         1.0       0.5875314603740998  0.4001904370434226  0.04245021619134692          1.0000   
         C         C         1.0       0.577617316171072   0.4023873929338827  0.08950337420023796          1.0000   
         C         C         1.0       0.5886503046904885  0.46768233885267024           0.9918081213922285 1.0000   
         C         C         1.0       0.6074666221219762  0.5417982340032544  0.04671216023794612          1.0000   
         C         C         1.0       0.6158661457133947  0.5212376285818144  0.0719240353792252 1.0000   
         C         C         1.0       0.6091240572540784  0.49804811118175524           0.05665219597190574          1.0000   
         C         C         1.0       0.5932537410066504  0.4944530774529246  0.015311847486475072         1.0000   
         C         C         1.0       0.5844255181076846  0.5153596635515605  0.9932151194817329 1.0000   
         C         C         1.0       0.591116387623193   0.5387431605065535  0.00892905933131094          1.0000   
         C         C         1.0       0.5622662846530712  0.4625946761514596  0.964197558779927  1.0000   
         C         C         1.0       0.5608746904469114  0.4508437527211035  0.920214560946732  1.0000   
         C         C         1.0       0.5384863050288154  0.4431804202765787  0.899786480422562  1.0000   
         C         C         1.0       0.5164058025955351  0.4505090831926764  0.9213990523247215 1.0000   
         C         C         1.0       0.5170691060218536  0.4652017794514254  0.9639855729068812 1.0000   
         C         C         1.0       0.5400989037005955  0.4707197462972769  0.9841200941522302 1.0000   
         C         C         1.0       0.6111975686740739  0.4789694748065844  0.9093460498715913 1.0000   
         C         C         1.0       0.6308046122861756  0.4792194332137004  0.877770673873374  1.0000   
         C         C         1.0       0.6536533975240439  0.46956862916067305           0.8941537386133824 1.0000   
         C         C         1.0       0.6556816145915135  0.46065812725127925           0.9422664652967705 1.0000   
         C         C         1.0       0.6353337072652436  0.45858428505227866           0.9718879387951788 1.0000   
         C         C         1.0       0.6121786040881586  0.4670307645912481  0.9552686820402602 1.0000   
         H         H         1.0       0.5423815599902951  0.3469836045694154  0.18578572399059629          1.0000   
         H         H         1.0       0.6044177467286206  0.4009025273271187  0.17247497921538404          1.0000   
         H         H         1.0       0.6191895980210457  0.3877477127084683  0.2510303700265754 1.0000   
         H         H         1.0       0.559021049964523   0.333616277217637   0.2583391414145579 1.0000   
         H         H         1.0       0.5359176852787596  0.38123387275639814           0.03028423302214334          1.0000   
         H         H         1.0       0.49174151309919795           0.38923815280643853          0.01331339723727232          1.0000   
         H         H         1.0       0.48150617701916665           0.3978164670798195 0.16792495281835526          1.0000   
         H         H         1.0       0.5262626751918275  0.3958803092811603  0.18312344631878089          1.0000   
         H         H         1.0       0.5643373609220418  0.4293625656250867  0.14146851958079482          1.0000   
         H         H         1.0       0.5759465944823959  0.4667604359140154  0.09251310784196431          1.0000   
         H         H         1.0       0.5958734385948053  0.41763185031194067           0.9734527229332575 1.0000   
         H         H         1.0       0.5891888397873237  0.382435466291263   0.021099731500246577         1.0000   
         H         H         1.0       0.6295270550755666  0.5223090598146211  0.10279272863674427          1.0000   
         H         H         1.0       0.6188480649466865  0.4828186283202335  0.07348932027892285          1.0000   
         H         H         1.0       0.5697798149588941  0.5127379937851928  0.9650095034431106 1.0000   
         H         H         1.0       0.5840871514606063  0.5555776430367809  0.9896802771111767 1.0000   
         H         H         1.0       0.5776094413314165  0.44403303061180405           0.9042982761123599 1.0000   
         H         H         1.0       0.5389275610664996  0.43330899802267653           0.8641351070735418 1.0000   
         H         H         1.0       0.5003909514532592  0.47195899553285786           0.9813592634706767 1.0000   
         H         H         1.0       0.5391018874754274  0.480592403705027   0.020046135367169704         1.0000   
         H         H         1.0       0.5930765675846355  0.487779399281622   0.8995216154232163 1.0000   
         H         H         1.0       0.6284934844328489  0.4872353840402098  0.8403192859262238 1.0000   
         H         H         1.0       0.6740960490701896  0.45702811086519113           0.9578220950632004 1.0000   
         H         H         1.0       0.6383711438749242  0.45300918864937956           0.009699075425716687         1.0000   
         C         C         1.0       0.2738103848381713  0.8598310516407648  0.7522410662025786 1.0000   
         C         C         1.0       0.254340333290831   0.8575751441238002  0.7841400083486283 1.0000   
         C         C         1.0       0.24134579939507367           0.8775992917855836 0.800536604952281  1.0000   
         C         C         1.0       0.24536459939645833           0.9013935185892901 0.7817795309366778 1.0000   
         C         C         1.0       0.2640854596318996  0.9038981066295841  0.7444496729799907 1.0000   
         C         C         1.0       0.2780139060521568  0.8831564117523402  0.7323303639573513 1.0000   
         H         H         1.0       0.25102406827037577           0.8387568009418243 0.7975845352963089 1.0000   
         H         H         1.0       0.22593411270932276           0.8754396142676514 0.8267429795501641 1.0000   
         H         H         1.0       0.2670713064156607  0.9228220025789391  0.7288072651922816 1.0000   
         H         H         1.0       0.29242344645289453           0.8849240997563337 0.7034331196527274 1.0000   
         C         C         1.0       0.26646728192401187           0.9556816144692278 0.8050655001904612 1.0000   
         C         C         1.0       0.24196218993427662           0.9532106148867415 0.7927746845995738 1.0000   
         C         C         1.0       0.22759211690668377           0.9752667922907415 0.7894005393181092 1.0000   
         C         C         1.0       0.23879684973058102           0.9978010084129659 0.7950740938236629 1.0000   
         C         C         1.0       0.26386900065403546           0.0001310229833559884        0.8109598737776663 1.0000   
         C         C         1.0       0.27710945825549677           0.9783497339280965 0.815088957796624  1.0000   
         C         C         1.0       0.22880294171050622           0.9258714803818963 0.7950610332057708 1.0000   
         C         C         1.0       0.21935133730867465           0.9273338989953211 0.850799391758067  1.0000   
         C         C         1.0       0.19556488377013576           0.9345004592487037 0.868078434080036  1.0000   
         C         C         1.0       0.1886239915468743  0.9302248319802672  0.9151696042169484 1.0000   
         C         C         1.0       0.20577839479618792           0.9240603086870303 0.9492350226344829 1.0000   
         C         C         1.0       0.23039687188270394           0.9206400881634508 0.9344861556560697 1.0000   
         C         C         1.0       0.2360853159501954  0.9199512149915784  0.8869288732812085 1.0000   
         C         C         1.0       0.2104919151001347  0.929746905387894   0.7086632974686544 1.0000   
         C         C         1.0       0.19682744384453185           0.9194474453479692 0.6697142206090627 1.0000   
         C         C         1.0       0.1755227029974758  0.9035155088682764  0.6787711669279928 1.0000   
         C         C         1.0       0.17266768709461924           0.8975716768009357 0.7266781244951149 1.0000   
         C         C         1.0       0.18792119989604839           0.906073214157548  0.764480516321315  1.0000   
         C         C         1.0       0.20835905540888286           0.9205302331592806 0.7547030868993914 1.0000   
         C         C         1.0       0.16098490472861596           0.8882451094301129 0.6360707090685236 1.0000   
         C         C         1.0       0.08125134657604538           0.8741558042055536 0.6518560543594755 1.0000   
         C         C         1.0       0.09222552363287038           0.8919951823210804 0.6809139969909574 1.0000   
         C         C         1.0       0.1175285069450996  0.8960739915453539  0.6792949366560515 1.0000   
         C         C         1.0       0.13302404695201508           0.882693602158312  0.6466260735226821 1.0000   
         C         C         1.0       0.12139819254854364           0.8645502458948665 0.6179223041237768 1.0000   
         C         C         1.0       0.09643184128118991           0.8605670076862538 0.6200287090009577 1.0000   
         C         C         1.0       0.1764072571090504  0.8623452666644914  0.6362384076808337 1.0000   
         C         C         1.0       0.1725584904877269  0.8437712438414107  0.6714720825175957 1.0000   
         C         C         1.0       0.18474535192727912           0.8215552115234931 0.6687586236428703 1.0000   
         C         C         1.0       0.1994960579354235  0.8166401722182112  0.6299100821905365 1.0000   
         C         C         1.0       0.20537930252501577           0.8348508689042683 0.5973137235279304 1.0000   
         C         C         1.0       0.19367630046387768           0.8577675303048128 0.6011323077853559 1.0000   
         C         C         1.0       0.15099676363642164           0.9310493577898905 0.5986352032872065 1.0000   
         C         C         1.0       0.15066400494728494           0.9483422290620165 0.5601800739414742 1.0000   
         C         C         1.0       0.15513264503417012           0.9419332080510592 0.5126883875133055 1.0000   
         C         C         1.0       0.16223178134410873           0.9169953758959181 0.502959758971591  1.0000   
         C         C         1.0       0.16311135252385717           0.8993332746410162 0.5404961010554363 1.0000   
         C         C         1.0       0.1593771635883431  0.9061626869881939  0.5904028946936644 1.0000   
         H         H         1.0       0.27985509683959325           0.939720452885003  0.8135906365755742 1.0000   
         H         H         1.0       0.20814108340247456           0.9753130284306253 0.7798216636971245 1.0000   
         H         H         1.0       0.22577620383433256           0.013173013008823231         0.7942703857862699 1.0000   
         H         H         1.0       0.2952951178848996  0.9796019273450766  0.8292723028724868 1.0000   
         H         H         1.0       0.18441502859790623           0.9425409849595535 0.8418383028727998 1.0000   
         H         H         1.0       0.16953940621096425           0.9354482553898575 0.9251717217168928 1.0000   
         H         H         1.0       0.24479346718575884           0.915495470721424  0.9612698446665261 1.0000   
         H         H         1.0       0.2547313960612162  0.9135762674127004  0.8781452655452664 1.0000   
         H         H         1.0       0.22669887231470845           0.9406927769627685 0.698491008679256  1.0000   
         H         H         1.0       0.20370982733847248           0.9240003561676802 0.6365489654199118 1.0000   
         H         H         1.0       0.16059174497169915           0.8837274874103523 0.7362976425958199 1.0000   
         H         H         1.0       0.18698929283385568           0.8952882270439777 0.79842725882213   1.0000   
         H         H         1.0       0.08169240655965707           0.9050005297877143 0.7007899673979323 1.0000   
         H         H         1.0       0.1239760371804619  0.9117771932927513  0.6999105857487287 1.0000   
         H         H         1.0       0.1316055749408768  0.8521776920703245  0.5919679758061436 1.0000   
         H         H         1.0       0.08825323681509777           0.8450622277720735 0.5985111817382237 1.0000   
         H         H         1.0       0.16023055078842716           0.847765298047303  0.7021994552727977 1.0000   
         H         H         1.0       0.18013701950292138           0.8067231541176513 0.6948153652346447 1.0000   
         H         H         1.0       0.21462780400770107           0.8300262633074955 0.5628217189967949 1.0000   
         H         H         1.0       0.19639665470296622           0.8707249934584583 0.5747444646662526 1.0000   
         H         H         1.0       0.14173953105800968           0.9370148341308205 0.6315114352451429 1.0000   
         H         H         1.0       0.1421182974018693  0.9664547287365187  0.56983226439084   1.0000   
         H         H         1.0       0.16737609437753073           0.9124801134074747 0.4644035348649656 1.0000   
         H         H         1.0       0.16804418023754455           0.8806410774051822 0.5282765311445442 1.0000   
         C         C         1.0       0.5110353044143109  0.7971961885383108  0.971738218186424  1.0000   
         C         C         1.0       0.5035742339064766  0.7731403712572942  0.9665026860798493 1.0000   
         C         C         1.0       0.47855469888243835           0.76578031983206   0.9618048554514577 1.0000   
         C         C         1.0       0.4596752033011511  0.7835221553804024  0.965217523670657  1.0000   
         C         C         1.0       0.46734400819356947           0.8082519009156043 0.9664086005944154 1.0000   
         C         C         1.0       0.49212264784662596           0.8147439480462947 0.9672244463754768 1.0000   
         H         H         1.0       0.517573532040872   0.7589703019238832  0.9651269372971646 1.0000   
         H         H         1.0       0.47493338845534677           0.7472330568191291 0.9595975631085222 1.0000   
         H         H         1.0       0.4548202590683893  0.8225445040012719  0.9676480251791543 1.0000   
         H         H         1.0       0.4955279666393622  0.835003232220273   0.9714416747357324 1.0000   
         C         C         1.0       0.4216619115533605  0.8094023487643508  0.037367758714373256         1.0000   
         C         C         1.0       0.4125580661596122  0.7946057136709868  0.9983713887992096 1.0000   
         C         C         1.0       0.3886017273977326  0.7983771086327532  0.9823131813580706 1.0000   
         C         C         1.0       0.37437358419599026           0.8183856104695855 0.00023787269886921258       1.0000   
         C         C         1.0       0.38390032877163816           0.8348053644053985 0.034001271654859444         1.0000   
         C         C         1.0       0.40740755111542143           0.8294292705330268 0.05326311911017356          1.0000   
         C         C         1.0       0.43130749364299614           0.7763122208092378 0.9680467268752653 1.0000   
         C         C         1.0       0.42810782106959366           0.7505025309497443 0.9971018447070276 1.0000   
         C         C         1.0       0.41053221186427963           0.7329130236016107 0.9804656669992308 1.0000   
         C         C         1.0       0.4106564848027136  0.707899994555123   0.9957002303867023 1.0000   
         C         C         1.0       0.4291311606572179  0.7002129562091384  0.028444616179396087         1.0000   
         C         C         1.0       0.4431381323576076  0.7171030853493028  0.052158408009971874         1.0000   
         C         C         1.0       0.4420304179876066  0.7423631999595726  0.039801599888114714         1.0000   
         C         C         1.0       0.4208945600601339  0.8001115634662651  0.887971205211343  1.0000   
         C         C         1.0       0.41580465321514254           0.801610886886509  0.8385326482203171 1.0000   
         C         C         1.0       0.4139190472926108  0.7810381669019154  0.8057234270100843 1.0000   
         C         C         1.0       0.4196222477791204  0.7582215989638332  0.8273936771098657 1.0000   
         C         C         1.0       0.4252198910492783  0.7573797643345214  0.8781293035565376 1.0000   
         C         C         1.0       0.42612682900851256           0.777931731596285  0.9109064675626942 1.0000   
         C         C         1.0       0.4052145383012228  0.7852992346462223  0.7501503947707466 1.0000   
         C         C         1.0       0.3275159119601727  0.8118820546054639  0.7739648579145023 1.0000   
         C         C         1.0       0.3472792435240758  0.82787918780641    0.7649812216851996 1.0000   
         C         C         1.0       0.3696208451210824  0.8191269418992404  0.7529863100020552 1.0000   
         C         C         1.0       0.37639795485946925           0.7946384916054154 0.7591079074352785 1.0000   
         C         C         1.0       0.35791629211263387           0.7777099903435012 0.7739093058240439 1.0000   
         C         C         1.0       0.3330646151576723  0.7868322361709119  0.7819812928659634 1.0000   
         C         C         1.0       0.40799585360949614           0.760513652944483  0.7154088480601836 1.0000   
         C         C         1.0       0.43091687869357126           0.7487160464032148 0.7119366621979927 1.0000   
         C         C         1.0       0.43335243372828275           0.7262851893746523 0.6872205446223438 1.0000   
         C         C         1.0       0.41364485916671895           0.7165497716494621 0.6583032322736673 1.0000   
         C         C         1.0       0.3903330731952064  0.7280836247867624  0.6613683309005917 1.0000   
         C         C         1.0       0.3888056024277015  0.7506278823930266  0.6847576483913699 1.0000   
         C         C         1.0       0.41295167748714406           0.8149350987190531 0.6706238096784297 1.0000   
         C         C         1.0       0.42911404088166155           0.8311980986898216 0.6449769497108961 1.0000   
         C         C         1.0       0.45305085490067365           0.8345290229224415 0.6609675319664322 1.0000   
         C         C         1.0       0.4604803233193627  0.8238409104581768  0.7042090476700521 1.0000   
         C         C         1.0       0.44530167328969217           0.8074608721816726 0.7295373696549937 1.0000   
         C         C         1.0       0.4209020991162911  0.8035315325982731  0.7145720115309347 1.0000   
         H         H         1.0       0.4407773553535755  0.80719024903368    0.04846718863896737          1.0000   
         H         H         1.0       0.3819979631649032  0.7873429992621103  0.9522805788618445 1.0000   
         H         H         1.0       0.35633812533911136           0.8236971902112875 0.9902531919730707 1.0000   
         H         H         1.0       0.41609427448371034           0.8425123374522434 0.07866802597576165          1.0000   
         H         H         1.0       0.3979536844786891  0.7362190770933261  0.9507114154322946 1.0000   
         H         H         1.0       0.39553577246958554           0.6959411975607357 0.9853067064007552 1.0000   
         H         H         1.0       0.4584817966462201  0.7101424068477787  0.07466760998992444          1.0000   
         H         H         1.0       0.4528995279010146  0.7568479990302585  0.057442941666515646         1.0000   
         H         H         1.0       0.41951391441725416           0.8188680497132208 0.9075225936011958 1.0000   
         H         H         1.0       0.40996710708448186           0.8198771905230836 0.8248277372824331 1.0000   
         H         H         1.0       0.4184555621183349  0.7403014238831098  0.8097048774180015 1.0000   
         H         H         1.0       0.4325316441514688  0.7403043351304635  0.8904163088553564 1.0000   
         H         H         1.0       0.3427314265647163  0.8484881121373209  0.7634508003939371 1.0000   
         H         H         1.0       0.38317959664152484           0.8325239171584986 0.7387728214265247 1.0000   
         H         H         1.0       0.3630115764122706  0.7571707766368135  0.780050642472868  1.0000   
         H         H         1.0       0.3175580757882442  0.7754306740674817  0.7939843933887621 1.0000   
         H         H         1.0       0.44655837710336166           0.7573174232634745 0.732022759945965  1.0000   
         H         H         1.0       0.4505560278930015  0.7157603471560166  0.6925607250990072 1.0000   
         H         H         1.0       0.3748942954864506  0.724494709238301   0.6372347286483842 1.0000   
         H         H         1.0       0.37071890749621805           0.759016920476073  0.682204984019495  1.0000   
         H         H         1.0       0.3939709255895817  0.8123116940146057  0.6592876524690822 1.0000   
         H         H         1.0       0.4231386317492375  0.8424469393955734  0.612950317207245  1.0000   
         H         H         1.0       0.47922492368399233           0.8271817998416516 0.7216358694855707 1.0000   
         H         H         1.0       0.45142940959225714           0.8004775218303298 0.7652209123126318 1.0000   
         C         C         1.0       0.13301361987583607           0.0766107791755456 0.04413060088169107          1.0000   
         C         C         1.0       0.12256093625359508           0.07121500297297861          0.9984367246496367 1.0000   
         C         C         1.0       0.1334284694159833  0.05597735754743005           0.9633756004708472 1.0000   
         C         C         1.0       0.15572905647975174           0.044842683815731865         0.9753637404671991 1.0000   
         C         C         1.0       0.1672667985811867  0.049791651260241876         0.02114807403963148          1.0000   
         C         C         1.0       0.1562590513779251  0.06530557632583522           0.05538295293683048          1.0000   
         H         H         1.0       0.10444828130847734           0.07940062952787164          0.9947473898374138 1.0000   
         H         H         1.0       0.12458362228191948           0.04953828692402307          0.9315917661549605 1.0000   
         H         H         1.0       0.18420199334317017           0.041006241165507884         0.032964050791320254         1.0000   
         H         H         1.0       0.1647308110537662  0.06878861621243945           0.09193509075417938          1.0000   
         C         C         1.0       0.21018448466377695           0.0447466663420657 0.9405691301499526 1.0000   
         C         C         1.0       0.19743840070712243           0.02252821634650437          0.939794551003238  1.0000   
         C         C         1.0       0.21045231986499813           0.0010269557512483374        0.9257554019921859 1.0000   
         C         C         1.0       0.23492124518138616           0.002088964403925031         0.9158697982679802 1.0000   
         C         C         1.0       0.2470689209489957  0.024494329768944834         0.9151385377928924 1.0000   
         C         C         1.0       0.2347234707241891  0.04551215413373377           0.9294790986587089 1.0000   
         C         C         1.0       0.16765873150305666           0.023323685058547428         0.9399601997437592 1.0000   
         C         C         1.0       0.1622174494293623  0.02580504185683341           0.8819627922300829 1.0000   
         C         C         1.0       0.16316588508751304           0.0033263811460839676        0.8528426782037707 1.0000   
         C         C         1.0       0.16325660625693764           0.005236800655697982         0.8013484703012014 1.0000   
         C         C         1.0       0.16719415055985562           0.028580558517962817         0.7799149632871336 1.0000   
         C         C         1.0       0.16488502322530665           0.04994257500460675          0.8090041137909703 1.0000   
         C         C         1.0       0.1626232736088095  0.04839939872108734           0.8581308606138082 1.0000   
         C         C         1.0       0.16167238918443405           0.9854504843590866 0.002485232464114917         1.0000   
         C         C         1.0       0.14692189038939885           0.9690751609645046 0.028824842386015792         1.0000   
         C         C         1.0       0.12100883614720781           0.9698244843901533 0.02364511759451227          1.0000   
         C         C         1.0       0.11144992331368253           0.9824124804587301 0.983415921222371  1.0000   
         C         C         1.0       0.12614738688526914           0.9975303590814275 0.9532179323995511 1.0000   
         C         C         1.0       0.1515904869252471  0.999340606972838   0.9624576358392183 1.0000   
         C         C         1.0       0.10529320404156828           0.9547039428584643 0.061818880277895054         1.0000   
         C         C         1.0       0.07737493552823943           0.890789302863455  0.9776299374422068 1.0000   
         C         C         1.0       0.10099374852935752           0.8917666356600105 0.9966186196935286 1.0000   
         C         C         1.0       0.10991576265074472           0.9124426221256147 0.02171866689876323          1.0000   
         C         C         1.0       0.09535562682335462           0.9334143140250711 0.02596194115199779          1.0000   
         C         C         1.0       0.07268177430393029           0.9341429509629467 0.0011445280723538787        1.0000   
         C         C         1.0       0.06346320071674698           0.9129103137417228 0.9777420620694632 1.0000   
         C         C         1.0       0.08262428610530256           0.971417097069934  0.08298225412931004          1.0000   
         C         C         1.0       0.081870714912826   0.9974747408451615  0.08416013493100208          1.0000   
         C         C         1.0       0.06741247658424426           0.011086666001739243         0.1161972671973528 1.0000   
         C         C         1.0       0.0498993710775344  0.9973038537234685  0.14302885479042274          1.0000   
         C         C         1.0       0.050417472208763345          0.9717763465558208 0.14234232089175564          1.0000   
         C         C         1.0       0.06521267628687143           0.9587019539872395 0.11064937635047914          1.0000   
         C         C         1.0       0.11348561894001066           0.9248945194658278 0.13790456608563428          1.0000   
         C         C         1.0       0.11576417712451315           0.9222989029908378 0.18824948568289354          1.0000   
         C         C         1.0       0.1234413055370717  0.9436621927693131  0.21468933451177113          1.0000   
         C         C         1.0       0.13124618724199327           0.9651464440696151 0.19080630958525033          1.0000   
         C         C         1.0       0.12924471038267032           0.9659054976196582 0.14196484431073217          1.0000   
         C         C         1.0       0.11896770212856257           0.9467215608616922 0.11343107795107815          1.0000   
         H         H         1.0       0.20240364566412264           0.06171566359385561          0.9525843475564995 1.0000   
         H         H         1.0       0.19934048739522137           0.9837918838955918 0.9231719278583058 1.0000   
         H         H         1.0       0.24521666632272937           0.9859683985489068 0.9013012467905531 1.0000   
         H         H         1.0       0.24368995232228416           0.06316026951270848          0.9268478542527817 1.0000   
         H         H         1.0       0.16566730911627256           0.9851408272756584 0.873157747545834  1.0000   
         H         H         1.0       0.16177110892329533           0.9879426995453813 0.7830488404600722 1.0000   
         H         H         1.0       0.1653264648772333  0.06870955848125715           0.7933620066554239 1.0000   
         H         H         1.0       0.16414388863250293           0.06548160993291807          0.879417970756734  1.0000   
         H         H         1.0       0.1795135189904756  0.9879222008482875  0.016337596223975348         1.0000   
         H         H         1.0       0.15401531611642869           0.9592737205343905 0.06142975688413477          1.0000   
         H         H         1.0       0.09123915474597158           0.9817793100675177 0.9790368548376415 1.0000   
         H         H         1.0       0.11868456612228202           0.009137009941869723         0.9234203675903309 1.0000   
         H         H         1.0       0.11300625442735289           0.8748969590246498 0.9937527852064233 1.0000   
         H         H         1.0       0.12755886992221932           0.9113409359412569 0.04446231504772036          1.0000   
         H         H         1.0       0.06072337968950701           0.9513659946665938 0.0016681277413783668        1.0000   
         H         H         1.0       0.044372131016692754          0.9139925670567186 0.9617863555910418 1.0000   
         H         H         1.0       0.0966265179193526  0.007859143818416348         0.065384574715291  1.0000   
         H         H         1.0       0.06946794425157447           0.032016885695757  0.11731917983750617          1.0000   
         H         H         1.0       0.03845677299700239           0.9608677262168728 0.1650627611738795 1.0000   
         H         H         1.0       0.0656530423974714  0.9376593732133229  0.11079093403639655          1.0000   
         H         H         1.0       0.10333991532854093           0.9110098242751519 0.11921670671611856          1.0000   
         H         H         1.0       0.10825324747625707           0.9053915451922939 0.2043909527998814 1.0000   
         H         H         1.0       0.13849717025021666           0.9797270224018999 0.2122071970599801 1.0000   
         H         H         1.0       0.13384412734164958           0.9844446098593786 0.12867657057435758          1.0000   
         C         C         1.0       0.05050942322487012           0.2736601527939204 0.012470187890208706         1.0000   
         C         C         1.0       0.029918673494234715          0.2583666242080229 0.9974747039249741 1.0000   
         C         C         1.0       0.029634308270221288          0.23305133901591701          0.011550824807859739         1.0000   
         C         C         1.0       0.0515125198461428  0.22116094190553687           0.025719031368530487         1.0000   
         C         C         1.0       0.0717872248132947  0.23614902166694496           0.04237535580459362          1.0000   
         C         C         1.0       0.06981537102276443           0.26203752623906995          0.03821228498519158          1.0000   
         H         H         1.0       0.013395912499214457          0.2678765942124634 0.9773113818701867 1.0000   
         H         H         1.0       0.012610446275177045          0.2244984362767265 0.9991680408788945 1.0000   
         H         H         1.0       0.08770861433048362           0.22837360244070826          0.06016349868129911          1.0000   
         H         H         1.0       0.08696609885084895           0.271401038082993  0.04815354773524194          1.0000   
         C         C         1.0       0.09464185649785799           0.19225924224555763          0.9721403693342974 1.0000   
         C         C         1.0       0.07873401315478903           0.17969167511545098          0.002386306029033891         1.0000   
         C         C         1.0       0.08608573139529695           0.15523951844033865          0.015410771036088677         1.0000   
         C         C         1.0       0.10828814276915957           0.14475811228923757          0.9992567341339306 1.0000   
         C         C         1.0       0.12519403883060842           0.1590046652935129 0.9721776351728801 1.0000   
         C         C         1.0       0.11809668990336    0.18376914022327764           0.9596343870377836 1.0000   
         C         C         1.0       0.05406822585264193           0.19061246772404986          0.0270279894398624 1.0000   
         C         C         1.0       0.03394163554403806           0.17843361941972477          0.9888014676441307 1.0000   
         C         C         1.0       0.019601321123432935          0.15727743498461236          0.9992015441421751 1.0000   
         C         C         1.0       0.0001222358866383999         0.14935250721805227          0.9705096524172636 1.0000   
         C         C         1.0       0.9935713422910357  0.16349625430279013           0.9287639681485087 1.0000   
         C         C         1.0       0.008768246757573372          0.1823436467343877 0.9130587829577478 1.0000   
         C         C         1.0       0.029337744253618236          0.18875481729653285          0.9428024461664991 1.0000   
         C         C         1.0       0.07260171091458745           0.18569682940272048          0.11416176397645872          1.0000   
         C         C         1.0       0.07265158274108875           0.17910959737749674          0.16333756833617427          1.0000   
         C         C         1.0       0.050506262131846905          0.16916428951008652          0.18405015395413907          1.0000   
         C         C         1.0       0.028377191365624777          0.1719474429662857 0.1553815204641346 1.0000   
         C         C         1.0       0.029367534497879433          0.18031140967322756          0.10736263718006123          1.0000   
         C         C         1.0       0.05149094087065387           0.18406627494893163          0.08497293550456031          1.0000   
         C         C         1.0       0.05419034716473881           0.15333312012325542          0.23303310637225397          1.0000   
         C         C         1.0       0.09344369619510338           0.09037399678445684          0.16889809595696262          1.0000   
         C         C         1.0       0.10619002599089014           0.10970654048097775          0.19042147113939423          1.0000   
         C         C         1.0       0.09456387590973843           0.12862085706219992          0.2132379238576697 1.0000   
         C         C         1.0       0.06848296114573243           0.12975157030107534          0.21195183934272943          1.0000   
         C         C         1.0       0.05554020386761063           0.11011163507422045          0.1889934613234484 1.0000   
         C         C         1.0       0.06830381924200664           0.09085230057392712          0.1671512867131672 1.0000   
         C         C         1.0       0.030515126016967153          0.1471748737320022 0.2627431681723726 1.0000   
         C         C         1.0       0.012796732910995035          0.16578363240645766          0.269944463630927  1.0000   
         C         C         1.0       0.9919333401443923  0.16173454292393036           0.2989710800977195 1.0000   
         C         C         1.0       0.9914095845934514  0.14049743404810527           0.32876010448167536          1.0000   
         C         C         1.0       0.008940815144108383          0.12208631616403946          0.32229539910975913          1.0000   
         C         C         1.0       0.027554525567166754          0.12433971636499146          0.2880477049636827 1.0000   
         C         C         1.0       0.08318118453700596           0.1581608790356515 0.3136077980342785 1.0000   
         C         C         1.0       0.09326711299555134           0.17194767083329413          0.3519515870573884 1.0000   
         C         C         1.0       0.09077900616673258           0.19850463453819145          0.3525207865888955 1.0000   
         C         C         1.0       0.07740520014284138           0.210100421025923  0.3154684630512097 1.0000   
         C         C         1.0       0.06793828889289052           0.19659110051852016          0.2765558270188394 1.0000   
         C         C         1.0       0.07057993995240883           0.1692447000633045 0.27487665951962303          1.0000   
         H         H         1.0       0.090382551096121   0.21156135855481967           0.9590447426835002 1.0000   
         H         H         1.0       0.0739205916615282  0.1431464717684641  0.036957374101965756         1.0000   
         H         H         1.0       0.11345171221090888           0.1262089696370698 0.01091735761530499          1.0000   
         H         H         1.0       0.12781525649846098           0.19539319655089915          0.9325187499872389 1.0000   
         H         H         1.0       0.023071897220455773          0.14676200257881838          0.03260514964490113          1.0000   
         H         H         1.0       0.9881755988077565  0.13398830967535694           0.9802215885925798 1.0000   
         H         H         1.0       0.004563015961394079          0.19322538240623166          0.8810648009839686 1.0000   
         H         H         1.0       0.04148996070883504           0.2033724159031788 0.930211474207449  1.0000   
         H         H         1.0       0.0898565062840238  0.19196517101665866           0.09697142424095695          1.0000   
         H         H         1.0       0.08962164025395379           0.18196675155934505          0.1835675368061034 1.0000   
         H         H         1.0       0.010470183179392967          0.1667916415109433 0.16867227540963928          1.0000   
         H         H         1.0       0.012060250890574942          0.1851346333477361 0.08716784647761   1.0000   
         H         H         1.0       0.12622112531406648           0.10941028422062213          0.19114659947394086          1.0000   
         H         H         1.0       0.10474948572715118           0.14375231804806096          0.2264085744670213 1.0000   
         H         H         1.0       0.036333280234298826          0.11177892055217706          0.18565493689126686          1.0000   
         H         H         1.0       0.05609732492287928           0.07996257905084705          0.14310456304577882          1.0000   
         H         H         1.0       0.014430683728885896          0.18349940035417955          0.25252527072520536          1.0000   
         H         H         1.0       0.9777782582566281  0.17533802641287655           0.3059068921642413 1.0000   
         H         H         1.0       0.0076866423945101126         0.10728399359791212          0.3476923502904157 1.0000   
         H         H         1.0       0.04080530008700611           0.10968096166793279          0.2820747844497125 1.0000   
         H         H         1.0       0.08301368776551377           0.1376679299357451 0.3167559137162425 1.0000   
         H         H         1.0       0.0968276065384516  0.16083970853650587           0.38353732035927385          1.0000   
         H         H         1.0       0.07518286526225165           0.22991067195463297          0.31516030961545016          1.0000   
         H         H         1.0       0.05688632157429766           0.2057580442955766 0.24880743314964682          1.0000   
         C         C         1.0       0.5513763997296035  0.7657815414338707  0.4720387015649403 1.0000   
         C         C         1.0       0.5261697403124324  0.76878766069709    0.4841893478129214 1.0000   
         C         C         1.0       0.5093523053237622  0.7496053439889587  0.4742802026112918 1.0000   
         C         C         1.0       0.5170940113930949  0.728409090903093   0.44818813618922354          1.0000   
         C         C         1.0       0.5412793223163161  0.72760333428094    0.43167903509522965          1.0000   
         C         C         1.0       0.5581326804704043  0.7455040129778646  0.44507861572370877          1.0000   
         H         H         1.0       0.518232272261196   0.7863250315934128  0.5006037596029456 1.0000   
         H         H         1.0       0.489474534812967   0.7517450912317488  0.4868315963375286 1.0000   
         H         H         1.0       0.5456208454350345  0.710727777427062   0.4119884537234273 1.0000   
         H         H         1.0       0.5763612227460501  0.745959846376558   0.4291586961107022 1.0000   
         C         C         1.0       0.5011251393145798  0.7140680797765433  0.3446309620653074 1.0000   
         C         C         1.0       0.49528770927806787           0.6970218816778765 0.3823617034353942 1.0000   
         C         C         1.0       0.4794942570556599  0.6762096877153871  0.3683867969489313 1.0000   
         C         C         1.0       0.47310460050769876           0.6724084558173111 0.31846616172066816          1.0000   
         C         C         1.0       0.4787663842885824  0.6902092815470335  0.28491720944123816          1.0000   
         C         C         1.0       0.4918797345738763  0.7111770048368872  0.2987976477187961 1.0000   
         C         C         1.0       0.49729865653857075           0.7057833010641799 0.4371424369104373 1.0000   
         C         C         1.0       0.46969761032998814           0.7130020666806688 0.44670385853261263          1.0000   
         C         C         1.0       0.45376376096104776           0.6990752868528247 0.4768271407893801 1.0000   
         C         C         1.0       0.4295367631062747  0.7065888039058109  0.48760242191419045          1.0000   
         C         C         1.0       0.4209272244981845  0.7285788135583802  0.46710756157770444          1.0000   
         C         C         1.0       0.4349294732991044  0.7415001375257873  0.435674137132341  1.0000   
         C         C         1.0       0.45878304277894577           0.7335479989378202 0.4240210677840156 1.0000   
         C         C         1.0       0.5148663626522557  0.662701033993776   0.46594215074358664          1.0000   
         C         C         1.0       0.5222596481417273  0.6450746281689749  0.5004200338115457 1.0000   
         C         C         1.0       0.5212531295214581  0.6507060130859905  0.5527614219563634 1.0000   
         C         C         1.0       0.5148707630384951  0.6753292092512655  0.5639895190195898 1.0000   
         C         C         1.0       0.5081821409564878  0.6927493012762013  0.5289321665487113 1.0000   
         C         C         1.0       0.5077798367581036  0.6870635780152988  0.47844736570342244          1.0000   
         C         C         1.0       0.5188069099992555  0.6290732142210476  0.5944916729191186 1.0000   
         C         C         1.0       0.5257644320470836  0.5535457836989967  0.5357043561812711 1.0000   
         C         C         1.0       0.5461398326612258  0.5699918235432156  0.5330092337480777 1.0000   
         C         C         1.0       0.5432730764584615  0.593954647838061   0.5537716746425212 1.0000   
         C         C         1.0       0.521052303633182   0.600747125918294   0.5750703840014908 1.0000   
         C         C         1.0       0.5019775565476455  0.5829872412844024  0.5819529074002979 1.0000   
         C         C         1.0       0.50469945934866    0.559854697587198   0.5597488384276809 1.0000   
         C         C         1.0       0.49172012879489024           0.6350033607311    0.6174593356881223 1.0000   
         C         C         1.0       0.48787461565277424           0.6486163334341015 0.659584892184551  1.0000   
         C         C         1.0       0.46417311189650046           0.658331448329646  0.6750165573881771 1.0000   
         C         C         1.0       0.4444249718608772  0.6553455347718092  0.6429258896412391 1.0000   
         C         C         1.0       0.44807422045126494           0.6431933546475957 0.5971686764992606 1.0000   
         C         C         1.0       0.4703688752702451  0.6321987950616452  0.5872364587232002 1.0000   
         C         C         1.0       0.5410060096221546  0.6145886319370077  0.6756264139844108 1.0000   
         C         C         1.0       0.5605769225441449  0.6134933632388883  0.7076349028261811 1.0000   
         C         C         1.0       0.5805280943408929  0.6299491841941784  0.7004548242528488 1.0000   
         C         C         1.0       0.5805095244007684  0.6463064220626704  0.6609414264924586 1.0000   
         C         C         1.0       0.5612366824864908  0.6460797875646541  0.6280496064004855 1.0000   
         C         C         1.0       0.5399475803540419  0.6320469954989365  0.6358529720219177 1.0000   
         H         H         1.0       0.5111155445111504  0.7302423132273177  0.35456415592949686          1.0000   
         H         H         1.0       0.47061269822805074           0.6650129505111548 0.39654215388120834          1.0000   
         H         H         1.0       0.46334649015428037           0.656217331792966  0.3053436303650846 1.0000   
         H         H         1.0       0.4929967227956039  0.7272420083943605  0.2720337321082233 1.0000   
         H         H         1.0       0.4598660284587569  0.6819846968841453  0.49592142159167946          1.0000   
         H         H         1.0       0.4162626243260383  0.6962876932637884  0.5133426043538046 1.0000   
         H         H         1.0       0.4279515031566933  0.7575921087260369  0.41584429974210313          1.0000   
         H         H         1.0       0.46867389288219574           0.7458756557546415 0.39769356900796454          1.0000   
         H         H         1.0       0.5154198940588871  0.6567150906151975  0.42745541034976237          1.0000   
         H         H         1.0       0.526995727055893   0.6255033789280753  0.49191314974312117          1.0000   
         H         H         1.0       0.5133716095809351  0.6822445721786552  0.6013791490449942 1.0000   
         H         H         1.0       0.5030365689896563  0.7125353425766718  0.5392426630142234 1.0000   
         H         H         1.0       0.5634796983788163  0.5654212802691472  0.511248946647355  1.0000   
         H         H         1.0       0.5576910960339799  0.6071036459105109  0.5478298562671451 1.0000   
         H         H         1.0       0.4854568312075107  0.5875006314537332  0.5997988004118451 1.0000   
         H         H         1.0       0.48929557609861557           0.5468141451844148 0.5617457599727521 1.0000   
         H         H         1.0       0.5021552788214806  0.6519530140035591  0.6847127014234805 1.0000   
         H         H         1.0       0.4619397316861978  0.6662286979630189  0.7121548039204533 1.0000   
         H         H         1.0       0.4342294528669784  0.6427479887122809  0.5684769185989876 1.0000   
         H         H         1.0       0.47191282253049327           0.621656352393393  0.5507067732761362 1.0000   
         H         H         1.0       0.5274340249544421  0.6002915915473178  0.6821621333937953 1.0000   
         H         H         1.0       0.5613763619120915  0.5996240148565938  0.7359150970034415 1.0000   
         H         H         1.0       0.5964746385394211  0.658120328416685   0.6556331337511521 1.0000   
         H         H         1.0       0.5637490816370482  0.6562165932580697  0.5932164829297624 1.0000   
         C         C         1.0       0.5567979465281637  0.4870041197201935  0.5244356210501353 1.0000   
         C         C         1.0       0.5495790438807041  0.46341354878151797           0.5107756574757368 1.0000   
         C         C         1.0       0.5670550893152381  0.44518084684956355           0.5022061203845531 1.0000   
         C         C         1.0       0.5919908720262658  0.4516497317388324  0.49607913615970123          1.0000   
         C         C         1.0       0.5989208337137191  0.4761586030995857  0.5070467978777358 1.0000   
         C         C         1.0       0.5809201174444901  0.4944026229823857  0.5201598363053382 1.0000   
         H         H         1.0       0.5295629403098089  0.4572839329236973  0.5177043078872472 1.0000   
         H         H         1.0       0.5618885037421946  0.4263016977482286  0.4969804542488109 1.0000   
         H         H         1.0       0.619080268048919   0.48167333627461484           0.5064438003012437 1.0000   
         H         H         1.0       0.5858084258292506  0.5140569549778714  0.5270130268692921 1.0000   
         C         C         1.0       0.6367362196172305  0.4570495068526712  0.4204598544766818 1.0000   
         C         C         1.0       0.6369667053687135  0.4392084662766633  0.4594086975083612 1.0000   
         C         C         1.0       0.6593580157651026  0.4299213269615556  0.4739536232484593 1.0000   
         C         C         1.0       0.6821242812606212  0.4388405938866133  0.4561026259787986 1.0000   
         C         C         1.0       0.681537078571006   0.45456931610263424           0.41604166742595794          1.0000   
         C         C         1.0       0.6590588595251965  0.464572560928366   0.39817994486186253          1.0000   
         C         C         1.0       0.6115686155274158  0.4297625752743829  0.48291174299912987          1.0000   
         C         C         1.0       0.6040874875984694  0.40864267876460814           0.4449771675746054 1.0000   
         C         C         1.0       0.6166289149469354  0.38542071767805636           0.44451859489059253          1.0000   
         C         C         1.0       0.6109455446972972  0.36638425595386004           0.411941919126813  1.0000   
         C         C         1.0       0.5926691344641114  0.3713338114965151  0.3775245445773033 1.0000   
         C         C         1.0       0.582121580687908   0.39463288531901697           0.372572431878227  1.0000   
         C         C         1.0       0.5881224830781829  0.41247453768837006           0.40717436443868504          1.0000   
         C         C         1.0       0.6271191370329972  0.43350246945843784           0.5734294228533557 1.0000   
         C         C         1.0       0.623436073745507   0.430617588194659   0.621756707838946  1.0000   
         C         C         1.0       0.6057440610968919  0.4140438461240074  0.6405663686201406 1.0000   
         C         C         1.0       0.5941715072915432  0.39702932530241086           0.6071312031534399 1.0000   
         C         C         1.0       0.5971276465684066  0.3995841524126161  0.5569331696720515 1.0000   
         C         C         1.0       0.613138716372168   0.41811184558110337           0.5393172682787019 1.0000   
         C         C         1.0       0.5951499333575668  0.41292001615808444           0.6968974911174239 1.0000   
         C         C         1.0       0.5725168219150423  0.3377679285169889  0.7537338568822508 1.0000   
         C         C         1.0       0.590865230720787   0.34051630122488685           0.718166916362809  1.0000   
         C         C         1.0       0.5972987196413099  0.36382190966914396           0.7023224224739713 1.0000   
         C         C         1.0       0.5856978581695651  0.38550710651276826           0.7163932329646445 1.0000   
         C         C         1.0       0.5672558412980998  0.382177339597957   0.7509145880265259 1.0000   
         C         C         1.0       0.559525445735402   0.3592745729682247  0.7680887941460075 1.0000   
         C         C         1.0       0.5716661497178988  0.4326490577850115  0.6934950769546439 1.0000   
         C         C         1.0       0.554219563508518   0.43522664444863945           0.6569796573339514 1.0000   
         C         C         1.0       0.535147851415309   0.45252507099706113           0.6600808563249201 1.0000   
         C         C         1.0       0.5302597048385345  0.46494894099136935           0.7027486277815259 1.0000   
         C         C         1.0       0.5474392229394558  0.4637376477374013  0.7398858838945439 1.0000   
         C         C         1.0       0.5671452246340594  0.44802145916335945           0.7354092138383783 1.0000   
         C         C         1.0       0.6325022532205552  0.40538722748002237           0.7622094998492099 1.0000   
         C         C         1.0       0.6507280885817919  0.41392104817530034           0.7925307356048954 1.0000   
         C         C         1.0       0.6582465518867721  0.43863419218239935           0.79423557537862   1.0000   
         C         C         1.0       0.6446623495771563  0.4556703168756856  0.766469432565802  1.0000   
         C         C         1.0       0.6249434900410753  0.4475443988734301  0.7386057008318138 1.0000   
         C         C         1.0       0.618578851001578   0.42182262442415647           0.7335679479700915 1.0000   
         H         H         1.0       0.6195687423477932  0.46507675576474955           0.40684154055714533          1.0000   
         H         H         1.0       0.6590873845317462  0.41633158781461277           0.5053900590267854 1.0000   
         H         H         1.0       0.7009373771336482  0.42885486423898866           0.469348624975226  1.0000   
         H         H         1.0       0.6595564605744576  0.47809449560042405           0.3687420052356001 1.0000   
         H         H         1.0       0.6310477477266365  0.38173881818629457           0.473521498481578  1.0000   
         H         H         1.0       0.6200606151902748  0.3480569580495564  0.41328286050815316          1.0000   
         H         H         1.0       0.5687220106023442  0.39689190945969005           0.344992794244964  1.0000   
         H         H         1.0       0.5800811610667715  0.43250582641794455           0.4032479040108515 1.0000   
         H         H         1.0       0.6350090469566555  0.4503311163011757  0.5572670288635256 1.0000   
         H         H         1.0       0.6343349111867693  0.4438130974996296  0.6451841639096024 1.0000   
         H         H         1.0       0.5774360810505446  0.38575588242161135           0.6207369072562328 1.0000   
         H         H         1.0       0.5838690391739609  0.3913202250194664  0.5314095716633168 1.0000   
         H         H         1.0       0.5986662760579179  0.32375529149408067           0.7056163529614474 1.0000   
         H         H         1.0       0.6128571286911214  0.3638829991804279  0.6777834568062396 1.0000   
         H         H         1.0       0.5567565125435601  0.3974882872395726  0.7651867158746809 1.0000   
         H         H         1.0       0.5474737902118197  0.3606942394203877  0.7980315556602355 1.0000   
         H         H         1.0       0.5551823167238664  0.4233533073830666  0.6271554892196184 1.0000   
         H         H         1.0       0.5203207950317692  0.4558424334101248  0.6315588295848694 1.0000   
         H         H         1.0       0.5447430558296202  0.4719095907638848  0.7771585959539039 1.0000   
         H         H         1.0       0.5770906067361722  0.44616852023056214           0.768989736304123  1.0000   
         H         H         1.0       0.6300729374691459  0.38512521661669036           0.7559663978597949 1.0000   
         H         H         1.0       0.6619394827600665  0.3999522836386522  0.8134776435298018 1.0000   
         H         H         1.0       0.6507424763420121  0.47497826241579644           0.7633335675231193 1.0000   
         H         H         1.0       0.6145692261074832  0.46183296150514935           0.7156233881260701 1.0000   
         C         C         1.0       0.053287599419019394          0.29957383978929325          0.28799054237512256          1.0000   
         C         C         1.0       0.06320764307435289           0.2821194543952091 0.3207733105662505 1.0000   
         C         C         1.0       0.04707534652769607           0.26820376903662946          0.3499564417120435 1.0000   
         C         C         1.0       0.02039261068358922           0.2728527573987148 0.3471888263234962 1.0000   
         C         C         1.0       0.01221794298380674           0.2908492807026923 0.3134236339342947 1.0000   
         C         C         1.0       0.02843851944289222           0.3018162335216009 0.2814889527881447 1.0000   
         H         H         1.0       0.08339229682302118           0.28086575396676455          0.3242964648276051 1.0000   
         H         H         1.0       0.055863827642871566          0.2556510565476567 0.3741306731648226 1.0000   
         H         H         1.0       0.9920425505397966  0.29377712213850127           0.3064396043228233 1.0000   
         H         H         1.0       0.02052179496370221           0.31564996019839875          0.25697711761361536          1.0000   
         C         C         1.0       0.018097534178417085          0.28129003293208477          0.46002014772661864          1.0000   
         C         C         1.0       0.0005665655637507871         0.2813352353051119 0.42243441573537593          1.0000   
         C         C         1.0       0.9852454961265816  0.30177153329164635           0.41873817432764293          1.0000   
         C         C         1.0       0.9870799558923374  0.321963167921138   0.4507249952917026 1.0000   
         C         C         1.0       0.004492238855011932          0.3211400798494546 0.48969451716775025          1.0000   
         C         C         1.0       0.021154360395479577          0.30144403232073   0.49166469578833716          1.0000   
         C         C         1.0       0.0002461140101264192         0.2595657326405071 0.3811481968722515 1.0000   
         C         C         1.0       0.007575411486019368          0.232152558597722  0.40142309636993123          1.0000   
         C         C         1.0       0.019546131938843248          0.21336520066377324          0.37527640300068354          1.0000   
         C         C         1.0       0.026377468708221885          0.19112346907810107          0.398442040968138  1.0000   
         C         C         1.0       0.017808959418682324          0.186133267209735  0.44441884976607865          1.0000   
         C         C         1.0       0.00197477654002598           0.20277619741766476          0.4672822436669501 1.0000   
         C         C         1.0       0.9968816793318453  0.22542593328539448           0.4461027200227868 1.0000   
         C         C         1.0       0.9522278169477311  0.2552745143309209  0.37931487131011893          1.0000   
         C         C         1.0       0.9312133583696183  0.24653939374615327           0.3577258253537803 1.0000   
         C         C         1.0       0.9299180706680005  0.23689149559135714           0.30931226299025993          1.0000   
         C         C         1.0       0.9523373668532024  0.2366752644283828  0.28443593099534514          1.0000   
         C         C         1.0       0.9738787337619214  0.24356687838282154           0.30829065238823694          1.0000   
         C         C         1.0       0.974358164024458   0.2533077905916696  0.3551795605965087 1.0000   
         C         C         1.0       0.9037470692616281  0.22484744790153344           0.2896283792322528 1.0000   
         C         C         1.0       0.840422021154038   0.26638328747390866           0.35032328401133256          1.0000   
         C         C         1.0       0.8417091772869639  0.2403712274493017  0.35138810615759414          1.0000   
         C         C         1.0       0.8626818493538744  0.2286361404471173  0.3348461292983308 1.0000   
         C         C         1.0       0.8815601053578397  0.24051218119121337           0.3130401859071405 1.0000   
         C         C         1.0       0.8793849772033723  0.26643198733476864           0.3095118581089805 1.0000   
         C         C         1.0       0.8589602257591827  0.27854334519884244           0.3259867533086175 1.0000   
         C         C         1.0       0.9081676045533826  0.196645491990738   0.3071028524972274 1.0000   
         C         C         1.0       0.9127912571484452  0.17730148558235995           0.2731591162512399 1.0000   
         C         C         1.0       0.9232896139868324  0.1555755630886307  0.2884282637931947 1.0000   
         C         C         1.0       0.9280320879989644  0.15153656990462533           0.3380193190313889 1.0000   
         C         C         1.0       0.9198004154955431  0.16766603468796284           0.3719110004017949 1.0000   
         C         C         1.0       0.9093504001016105  0.18959586478337467           0.3584140500762948 1.0000   
         C         C         1.0       0.8771334691119594  0.2151692439310772  0.21423447994433645          1.0000   
         C         C         1.0       0.8691421041593512  0.21743811925572928           0.16625913475286802          1.0000   
         C         C         1.0       0.8818650247276278  0.23365569276356288           0.13481033658282446          1.0000   
         C         C         1.0       0.9011691337579841  0.24798408304611627           0.155648927546135  1.0000   
         C         C         1.0       0.9074789498886059  0.2463401251264204  0.20488368817342073          1.0000   
         C         C         1.0       0.897211778748457   0.22900955333381082           0.2341857915453714 1.0000   
         H         H         1.0       0.03151706515857433           0.2661029823366154 0.4617362792693116 1.0000   
         H         H         1.0       0.9699036770638332  0.30454479111504257           0.39076732747760246          1.0000   
         H         H         1.0       0.9743119236425839  0.3381014971417638  0.4485527146601443 1.0000   
         H         H         1.0       0.03710999153254879           0.2999892553141054 0.5144094917025962 1.0000   
         H         H         1.0       0.026417894896675564          0.21605116711684536          0.3365974282643763 1.0000   
         H         H         1.0       0.041083774264377704          0.17901295630510694          0.3853356324207675 1.0000   
         H         H         1.0       0.99674841589751    0.20055856337669647           0.5040989289657917 1.0000   
         H         H         1.0       0.9841810872661453  0.23666383772842006           0.46651889374826017          1.0000   
         H         H         1.0       0.9511629000462348  0.2613017767114686  0.41718660635981675          1.0000   
         H         H         1.0       0.9142166843612779  0.24780707989473047           0.38168181339820345          1.0000   
         H         H         1.0       0.9541480987105102  0.23051127466638996           0.24846930642668646          1.0000   
         H         H         1.0       0.9917324470802088  0.24151170568998487           0.29131873388409285          1.0000   
         H         H         1.0       0.8256327111791707  0.23004609522439895           0.3615313342846816 1.0000   
         H         H         1.0       0.8609464122113679  0.20788822486968306           0.339074440078824  1.0000   
         H         H         1.0       0.8912711151866345  0.27657311106101934           0.28350780302066053          1.0000   
         H         H         1.0       0.8565812903071347  0.29874732093702594           0.3209134805362746 1.0000   
         H         H         1.0       0.9129266948345538  0.18141369399913443           0.23222270365747116          1.0000   
         H         H         1.0       0.9298648736229215  0.14272620472040634           0.26086141420409004          1.0000   
         H         H         1.0       0.9252043365431056  0.16377198472229607           0.4119818035773036 1.0000   
         H         H         1.0       0.9058050862565488  0.2042942664149587  0.3863072101940733 1.0000   
         H         H         1.0       0.8657976755416695  0.20228088349551715           0.23796816662295167          1.0000   
         H         H         1.0       0.8550167133420705  0.20668777993240822           0.14705092104859688          1.0000   
         H         H         1.0       0.910228574505312   0.261410826675394   0.13258767646030056          1.0000   
         H         H         1.0       0.9235146696374062  0.25811463898648573           0.22015682958498176          1.0000   
         C         C         1.0       0.7729549874536459  0.2952068457901509  0.33833373656969945          1.0000   
         C         C         1.0       0.7588286056590654  0.2883162669719686  0.37863235731109174          1.0000   
         C         C         1.0       0.7377303648721453  0.3020513794009559  0.38916608061545666          1.0000   
         C         C         1.0       0.7302945288791878  0.32285896437849243           0.36022320532871593          1.0000   
         C         C         1.0       0.7441503479779091  0.3277460329821051  0.3192073708198649 1.0000   
         C         C         1.0       0.7660010804961281  0.31600296477568757           0.3083147899758799 1.0000   
         H         H         1.0       0.7650276754630396  0.2739957113316854  0.40508395782138784          1.0000   
         H         H         1.0       0.7250399922739312  0.29763534839735806           0.4170734665734821 1.0000   
         H         H         1.0       0.7371370993544558  0.34179469460406875           0.29157938473656037          1.0000   
         H         H         1.0       0.7771084915580339  0.324313737041242   0.279459121476638  1.0000   
         C         C         1.0       0.7265634316881545  0.3810916243873291  0.3515836912363678 1.0000   
         C         C         1.0       0.7046697644891771  0.36726743280590013           0.35015191425278264          1.0000   
         C         C         1.0       0.6831974407163445  0.3811822373464105  0.34172375519235204          1.0000   
         C         C         1.0       0.6836353060576505  0.4070624287482457  0.3340483152354293 1.0000   
         C         C         1.0       0.7054189981802583  0.4199727291930888  0.33504286246455844          1.0000   
         C         C         1.0       0.7273095734461141  0.40618937725659204           0.3415626660360988 1.0000   
         C         C         1.0       0.7035839321650166  0.3380449747089444  0.3633989405003054 1.0000   
         C         C         1.0       0.6941071505377852  0.3409594520579349  0.4203584417660123 1.0000   
         C         C         1.0       0.6712096533429441  0.33580985669186214           0.43970584817074515          1.0000   
         C         C         1.0       0.6673247147167117  0.33966204821557294           0.48828796507135147          1.0000   
         C         C         1.0       0.6862281554476953  0.34768820557345614           0.5209011174542001 1.0000   
         C         C         1.0       0.7095406568938228  0.3528618071980689  0.5012603388877441 1.0000   
         C         C         1.0       0.7128957402059672  0.34912403369986555           0.4539060993751453 1.0000   
         C         C         1.0       0.6872131210019629  0.32736266704207345           0.27747817225326854          1.0000   
         C         C         1.0       0.6851275604911748  0.30823675956092217           0.24488098384442006          1.0000   
         C         C         1.0       0.6803332394650335  0.2841155186180983  0.2614752321387304 1.0000   
         C         C         1.0       0.6711157730365495  0.2813137150388145  0.3069802700794667 1.0000   
         C         C         1.0       0.6769426434928314  0.30024852774961597           0.34174086835491535          1.0000   
         C         C         1.0       0.6863946049014276  0.32257989829021755           0.3276262386909727 1.0000   
         C         C         1.0       0.6868103671827713  0.25897134672558636           0.22955474491780775          1.0000   
         C         C         1.0       0.6174666403424501  0.2611751336264944  0.14196394387018804          1.0000   
         C         C         1.0       0.6390451465956107  0.27057277218745474           0.12370593427064412          1.0000   
         C         C         1.0       0.660600783259288   0.26917421804168173           0.1501986245589532 1.0000   
         C         C         1.0       0.6609655216734328  0.2585544551731021  0.1976734904977412 1.0000   
         C         C         1.0       0.6393577229798166  0.2481607437695208  0.21391265158046435          1.0000   
         C         C         1.0       0.6174688248988452  0.2492474302722501  0.18716980264495706          1.0000   
         C         C         1.0       0.6919686423279948  0.23314429934958442           0.2596439122007771 1.0000   
         C         C         1.0       0.7055368061476579  0.23290399847071894           0.30427726146021894          1.0000   
         C         C         1.0       0.709577421946393   0.2109374104542862  0.330035773399687  1.0000   
         C         C         1.0       0.7001676970277025  0.1888194186011307  0.3122991001938148 1.0000   
         C         C         1.0       0.6880161628824043  0.1882221090562997  0.2664528083236762 1.0000   
         C         C         1.0       0.6845398598312074  0.21021546639185804           0.24168119337479482          1.0000   
         C         C         1.0       0.7162346416859734  0.2480800043231086  0.15715568894170123          1.0000   
         C         C         1.0       0.7383633657781471  0.2510511827247631  0.12998777904643813          1.0000   
         C         C         1.0       0.7562041971851656  0.2678910697663581  0.14297421174607128          1.0000   
         C         C         1.0       0.7540603669002229  0.2797342759926208  0.18901082153365245          1.0000   
         C         C         1.0       0.73290708329845    0.27572076520158895           0.21606118275119965          1.0000   
         C         C         1.0       0.7129460412464234  0.261153570025602   0.19942051932618   1.0000   
         H         H         1.0       0.743219739148815   0.37160204783957296           0.36683773797333596          1.0000   
         H         H         1.0       0.6642556204825428  0.37182781303518186           0.337066382647467  1.0000   
         H         H         1.0       0.6672092110296276  0.4182236090485083  0.32875437741392105          1.0000   
         H         H         1.0       0.7444323285971554  0.4163759871646112  0.34403422941715656          1.0000   
         H         H         1.0       0.6559468847998362  0.3296087409016072  0.4179181807034378 1.0000   
         H         H         1.0       0.6488555573975655  0.33536221216182593           0.5035935581127468 1.0000   
         H         H         1.0       0.7265468268312337  0.35351543187311446           0.5262482669100481 1.0000   
         H         H         1.0       0.731481668393531   0.3501174942945431  0.4387292427029865 1.0000   
         H         H         1.0       0.6945390329415765  0.3431997326005424  0.26501053148610904          1.0000   
         H         H         1.0       0.6897080095127005  0.3133379955149373  0.20843614125308635          1.0000   
         H         H         1.0       0.6650901472182242  0.2636359768022158  0.32233096637334185          1.0000   
         H         H         1.0       0.6800354725900356  0.2954461340076683  0.37885180059617146          1.0000   
         H         H         1.0       0.6412385326571874  0.27977273550019066           0.08781270998575834          1.0000   
         H         H         1.0       0.6759232580522284  0.2776885991983825  0.13443848098884573          1.0000   
         H         H         1.0       0.6374740257401966  0.23505738997798076           0.24321662527574028          1.0000   
         H         H         1.0       0.6006714053355324  0.24120061645068716           0.20370333599025722          1.0000   
         H         H         1.0       0.7111106619807847  0.25069192256313105           0.3201676732859407 1.0000   
         H         H         1.0       0.7198275009416228  0.21157268032263402           0.36470879881512713          1.0000   
         H         H         1.0       0.6806761096374065  0.17032217603575142           0.2565861741116739 1.0000   
         H         H         1.0       0.6767789092346901  0.2096532041035815  0.20246339571280675          1.0000   
         H         H         1.0       0.702819127594192   0.23570773188146785           0.1466857631047826 1.0000   
         H         H         1.0       0.7399433230108541  0.24129218089220522           0.09518187119449233          1.0000   
         H         H         1.0       0.7682505697416567  0.29252830129425617           0.2045249882526551 1.0000   
         H         H         1.0       0.7319245717483255  0.28570072800942553           0.2519481597379677 1.0000   
         C         C         1.0       0.5255514065658938  0.037233916842108306         0.0962311137929901 1.0000   
         C         C         1.0       0.5283130777418951  0.020100224336829342         0.1340919396194675 1.0000   
         C         C         1.0       0.5078167225034484  0.007022702273430381         0.15036450278676367          1.0000   
         C         C         1.0       0.4852057184063357  0.007058837050856193         0.12675028720131848          1.0000   
         C         C         1.0       0.48282789482976585           0.025082667963626015         0.0880140027504944 1.0000   
         C         C         1.0       0.5018574532882333  0.04095833002141958           0.07524597200201244          1.0000   
         H         H         1.0       0.5453880835791698  0.01666378326061091           0.15497496831698127          1.0000   
         H         H         1.0       0.5105904172326516  0.9943866644841155  0.18071835819629886          1.0000   
         H         H         1.0       0.46513959551855577           0.025758050860289483         0.06525778443872067          1.0000   
         H         H         1.0       0.498192583929872   0.0542733875757413  0.04609722907946434          1.0000   
         C         C         1.0       0.4298727992662064  0.01534622756287396           0.15384330857302425          1.0000   
         C         C         1.0       0.43722297555645373           0.9923943333269251 0.13637597590065223          1.0000   
         C         C         1.0       0.41889635674314907           0.9757500774637943 0.12048296959105137          1.0000   
         C         C         1.0       0.3937954687059666  0.9802033715878018  0.125639171069145  1.0000   
         C         C         1.0       0.3868851310091372  0.0024390663096216514        0.14907928091727501          1.0000   
         C         C         1.0       0.4038762738146979  0.0202268416353808  0.16209554419432917          1.0000   
         C         C         1.0       0.4657356801027792  0.9846268196659265  0.13907254672880967          1.0000   
         C         C         1.0       0.46466455849971533           0.9738346129069099 0.1949583905154489 1.0000   
         C         C         1.0       0.4575235510437625  0.9497951049958114  0.20331939488975304          1.0000   
         C         C         1.0       0.45026166496118775           0.9417975318133764 0.2501774028166552 1.0000   
         C         C         1.0       0.4519306460258423  0.9581123680590615  0.2889373492979428 1.0000   
         C         C         1.0       0.46357490496621445           0.9816077054065766 0.2818832006193073 1.0000   
         C         C         1.0       0.46973508110162915           0.9896632796627358 0.23518376096546226          1.0000   
         C         C         1.0       0.46446141589672446           0.967467502141026  0.04886118816762374          1.0000   
         C         C         1.0       0.4739846479529801  0.9529007340151207  0.012186569721467366         1.0000   
         C         C         1.0       0.4929046450125338  0.9354561627477267  0.023290584182211527         1.0000   
         C         C         1.0       0.5035052649037398  0.934811050616182   0.07174927407625398          1.0000   
         C         C         1.0       0.4927316431106839  0.9501427846906642  0.10759564244210063          1.0000   
         C         C         1.0       0.47337865856823985           0.9666863398696257 0.0968393328624698 1.0000   
         C         C         1.0       0.507862775664272   0.9211910809999223  0.9787192907178299 1.0000   
         C         C         1.0       0.537849413742493   0.8472793245514768  0.02181453778232889          1.0000   
         C         C         1.0       0.5171282387684616  0.8572965773400513  0.045436299718726314         1.0000   
         C         C         1.0       0.5091930134885543  0.8814501434253944  0.0349198795527319 1.0000   
         C         C         1.0       0.5205202056269271  0.8957232176734441  0.9995117332504309 1.0000   
         C         C         1.0       0.5420282428885281  0.8858859785961901  0.9800473667942202 1.0000   
         C         C         1.0       0.5509404520715568  0.862020070369018   0.9887453801608362 1.0000   
         C         C         1.0       0.5283944528818801  0.9402482978681533  0.9553404053317924 1.0000   
         C         C         1.0       0.534900901674965   0.9624254645627363  0.9773558642006838 1.0000   
         C         C         1.0       0.547910514162416   0.9802784563598399  0.9541592025923149 1.0000   
         C         C         1.0       0.5585718652689112  0.9754677460118955  0.908559832323775  1.0000   
         C         C         1.0       0.5531454045464049  0.9530743911664565  0.8852037688118501 1.0000   
         C         C         1.0       0.5389122993375608  0.9355862489882019  0.9083002795196282 1.0000   
         C         C         1.0       0.4748221707589571  0.8901912773273548  0.9360689706256579 1.0000   
         C         C         1.0       0.4592307061573243  0.8822046840507037  0.8981779799999056 1.0000   
         C         C         1.0       0.4550875644626206  0.8987759918717263  0.8590256558745684 1.0000   
         C         C         1.0       0.4661298712010286  0.9220552741032862  0.8591525434423096 1.0000   
         C         C         1.0       0.481649533256704   0.9287452782003696  0.8982790054900998 1.0000   
         C         C         1.0       0.4881255268948981  0.9132081567814777  0.9362896859580297 1.0000   
         H         H         1.0       0.44297405964220476           0.028955219135983423         0.16799502597292998          1.0000   
         H         H         1.0       0.42358321130374577           0.9570825133918519 0.11070974065645874          1.0000   
         H         H         1.0       0.3795908852610283  0.9659829912602088  0.11882625663276192          1.0000   
         H         H         1.0       0.3978773191832697  0.03717452766990004           0.1785332041633802 1.0000   
         H         H         1.0       0.4544800063660371  0.9378342725511383  0.1741701930830532 1.0000   
         H         H         1.0       0.44353467271883135           0.9227034276507258 0.25516540161543955          1.0000   
         H         H         1.0       0.46496467070231084           0.9944486340188231 0.314463690843822  1.0000   
         H         H         1.0       0.47698896662728235           0.00769847385506317          0.22973849509458735          1.0000   
         H         H         1.0       0.449108109868103   0.9785673635313024  0.03833691908559245          1.0000   
         H         H         1.0       0.4652146041459513  0.9541264850339065  0.9767403953095832 1.0000   
         H         H         1.0       0.52038122714143    0.9241070461597514  0.08094414631186342          1.0000   
         H         H         1.0       0.5014361911576904  0.949142666574445   0.14425979362055064          1.0000   
         H         H         1.0       0.5062921524514238  0.8428142685925873  0.06494857956126454          1.0000   
         H         H         1.0       0.49257785949573624           0.8885393860343753 0.051070898573363444         1.0000   
         H         H         1.0       0.5523559048197718  0.89698331002026    0.9534504026767974 1.0000   
         H         H         1.0       0.5676091606086644  0.85499009100426    0.9709203585024198 1.0000   
         H         H         1.0       0.5284994003518696  0.9669729371351442  0.013999892887546883         1.0000   
         H         H         1.0       0.5512193475041084  0.996195141465082   0.9777162531047034 1.0000   
         H         H         1.0       0.5613980964457086  0.9487575711258333  0.8504039326669706 1.0000   
         H         H         1.0       0.5350929258855976  0.9172374585719858  0.8896783395683882 1.0000   
         H         H         1.0       0.47936363396080633           0.8735846964641256 0.959690051772548  1.0000   
         H         H         1.0       0.44893565116905015           0.8657080444930504 0.8992630360847889 1.0000   
         H         H         1.0       0.46416949850611977           0.9357085204322494 0.8284456525414788 1.0000   
         H         H         1.0       0.4918823537698829  0.9451294926017418  0.8944047184052062 1.0000   
         C         C         1.0       0.565741928178573   0.25881606446499705           0.29657606644478474          1.0000   
         C         C         1.0       0.5899264377846126  0.2517548966813461  0.3118735924668481 1.0000   
         C         C         1.0       0.5974529195155757  0.2278708756275897  0.30085182014785733          1.0000   
         C         C         1.0       0.5807632104807574  0.2108706472677466  0.2777614696366388 1.0000   
         C         C         1.0       0.5583520930517096  0.22069232226202828           0.25735773778981463          1.0000   
         C         C         1.0       0.5505310643324213  0.2441341576416065  0.26695316511603817          1.0000   
         H         H         1.0       0.6028018030026585  0.2635325777539276  0.3265274711617204 1.0000   
         H         H         1.0       0.6157224337165971  0.22180053446626627           0.3115832047379319 1.0000   
         H         H         1.0       0.5447642305971057  0.20945215262889372           0.23720803227791823          1.0000   
         H         H         1.0       0.5355813602198491  0.25076988966488195           0.24726598682841638          1.0000   
         C         C         1.0       0.5494553243730409  0.1646968816976084  0.3018140756303492 1.0000   
         C         C         1.0       0.5687263623482208  0.16184183539625827           0.2695521339520268 1.0000   
         C         C         1.0       0.5708384625179175  0.13918172983946792           0.2453811336581169 1.0000   
         C         C         1.0       0.5540615796000916  0.1201204749536057  0.2563688532096883 1.0000   
         C         C         1.0       0.5348092895431157  0.12435518183542289           0.28625843314898364          1.0000   
         C         C         1.0       0.5320936218873973  0.14802284540949956           0.30757271050473783          1.0000   
         C         C         1.0       0.5902182998429448  0.18265839454495156           0.26675214127946695          1.0000   
         C         C         1.0       0.6098752236107957  0.17047765155762792           0.306603415014029  1.0000   
         C         C         1.0       0.6263334026215496  0.15186957755186922           0.2901590555868072 1.0000   
         C         C         1.0       0.6476261561466988  0.14651989280744002           0.31849971167322133          1.0000   
         C         C         1.0       0.6529529795272472  0.16019644426117763           0.3601128740361975 1.0000   
         C         C         1.0       0.6358064356839417  0.17756465614238395           0.3775691317052741 1.0000   
         C         C         1.0       0.6133669852443414  0.18015821241406704           0.35374295343054407          1.0000   
         C         C         1.0       0.5795063964526761  0.18269362380435045           0.17305582246112744          1.0000   
         C         C         1.0       0.5855576198342416  0.17986487184680658           0.12413908557542189          1.0000   
         C         C         1.0       0.6102566033885569  0.17537016928882967           0.10945461941094904          1.0000   
         C         C         1.0       0.6278186759471657  0.17905526332641852           0.1463605131616773 1.0000   
         C         C         1.0       0.6218414541026624  0.18282073000118684           0.19421341789914956          1.0000   
         C         C         1.0       0.5972569331218207  0.18500793472808874           0.21064708929424528          1.0000   
         C         C         1.0       0.6150327325783751  0.1609302234171197  0.05797004518277805          1.0000   
         C         C         1.0       0.5718119830901411  0.09413498710730142           0.10341919444824446          1.0000   
         C         C         1.0       0.5626187255809025  0.11099216752167353           0.0701970642440708 1.0000   
         C         C         1.0       0.5765603360641938  0.1305301336486833  0.054198166404510806         1.0000   
         C         C         1.0       0.6012292327162753  0.13541015116818064           0.07188392444399262          1.0000   
         C         C         1.0       0.6109283633112228  0.11745668887657931           0.10412437076543503          1.0000   
         C         C         1.0       0.5971933161905805  0.09635396205940759           0.11750987131293296          1.0000   
         C         C         1.0       0.6436868246920117  0.1577246138801983  0.04346601241835879          1.0000   
         C         C         1.0       0.6593320826510716  0.17863043376084986           0.04569450364871708          1.0000   
         C         C         1.0       0.6844898163665701  0.17697551200685097           0.038659388703816244         1.0000   
         C         C         1.0       0.6942468593151202  0.1543404400753719  0.025921527716064707         1.0000   
         C         C         1.0       0.6806312476315916  0.1326782648007244  0.02489446221963232          1.0000   
         C         C         1.0       0.6551742764884214  0.13552552012277547           0.03020145628921944          1.0000   
         C         C         1.0       0.6030772151683518  0.1617434267038847  0.9638275263504076 1.0000   
         C         C         1.0       0.5952822886923423  0.17340140127954856           0.9212255441492846 1.0000   
         C         C         1.0       0.5897398793695308  0.19909459254518752           0.9201479147555285 1.0000   
         C         C         1.0       0.5911435086347574  0.21236210126794858           0.9631724353277205 1.0000   
         C         C         1.0       0.6000009844218244  0.20122257280742228           0.00663579274267545          1.0000   
         C         C         1.0       0.6035630367040525  0.17553144452090608           0.008075638686601216         1.0000   
         H         H         1.0       0.5470321765224512  0.18261021584143966           0.32380582250658807          1.0000   
         H         H         1.0       0.5860559450968185  0.13584917953191092           0.22175363273505835          1.0000   
         H         H         1.0       0.5564933006489672  0.10053230225644987           0.23964614535953324          1.0000   
         H         H         1.0       0.5167709101687233  0.15355929800972257           0.33097342185915263          1.0000   
         H         H         1.0       0.6252585775825495  0.1410336463658566  0.25566388037483717          1.0000   
         H         H         1.0       0.662563296641571   0.13342748093914603           0.3094942310250273 1.0000   
         H         H         1.0       0.6407918774810427  0.19101054115168226           0.4093417966908682 1.0000   
         H         H         1.0       0.600483574058728   0.19310185243785488           0.3699091946617631 1.0000   
         H         H         1.0       0.5597626716828671  0.1799827754125281  0.18022370628710513          1.0000   
         H         H         1.0       0.5705247418766327  0.174907544714497   0.0986956255138564 1.0000   
         H         H         1.0       0.647371763231408   0.1794041125441703  0.13930413574550546          1.0000   
         H         H         1.0       0.6376347529211397  0.18615423873395473           0.21898798486364715          1.0000   
         H         H         1.0       0.544862097002172   0.10874583940399457           0.051080007153761375         1.0000   
         H         H         1.0       0.5672668241056703  0.14225006605118481           0.026170682577893345         1.0000   
         H         H         1.0       0.629319235305191   0.12075258916714499           0.12165435811861852          1.0000   
         H         H         1.0       0.6043730821137597  0.08520313087937832           0.14662699554638595          1.0000   
         H         H         1.0       0.650832200625345   0.19709966515800487           0.058606344521486414         1.0000   
         H         H         1.0       0.6962477060190888  0.19285450874823645           0.03349639686071004          1.0000   
         H         H         1.0       0.6902269472483301  0.11590730120143487           0.01719309875187225          1.0000   
         H         H         1.0       0.6442475993910326  0.11812108025644476           0.029183722353051333         1.0000   
         H         H         1.0       0.6101228794440874  0.1432431542280835  0.9634303111690568 1.0000   
         H         H         1.0       0.5978177999347442  0.1633438255526791  0.8855945124074834 1.0000   
         H         H         1.0       0.5883098025770359  0.2323845439443996  0.9644857020303068 1.0000   
         H         H         1.0       0.6011617093673531  0.21283563717175064           0.039150473000139074         1.0000   
         C         C         1.0       0.074674427603362   0.8443375207191591  0.05452847952750398          1.0000   
         C         C         1.0       0.08789522372988016           0.8228331129008791 0.054239646148630846         1.0000   
         C         C         1.0       0.10658742951111781           0.8192421594323978 0.08829799499194077          1.0000   
         C         C         1.0       0.11104436833566364           0.8352955600674604 0.12806994751215925          1.0000   
         C         C         1.0       0.09479860538313314           0.8559685236438638 0.13083373732331574          1.0000   
         C         C         1.0       0.07773731145198945           0.8616370826743323 0.09342649532356496          1.0000   
         H         H         1.0       0.08259489358816767           0.810092137569446  0.023884007308363264         1.0000   
         H         H         1.0       0.11587198706095338           0.8006620803577866 0.08839996886471854          1.0000   
         H         H         1.0       0.0988545684345963  0.868423264775677   0.15945980347385436          1.0000   
         H         H         1.0       0.06840626286908351           0.8791404368965166 0.09119385339570682          1.0000   
         C         C         1.0       0.15470431980165772           0.87156295456972   0.10655461372029619          1.0000   
         C         C         1.0       0.15330961995197617           0.8462846524486415 0.11009614793051674          1.0000   
         C         C         1.0       0.1671189631024143  0.8340654306422571  0.07474727676214138          1.0000   
         C         C         1.0       0.179928587533312   0.8448436576461331  0.03880727546958518          1.0000   
         C         C         1.0       0.17876787339639988           0.8710581914930613 0.03476691253253805          1.0000   
         C         C         1.0       0.1674250671603492  0.8843509635439792  0.0703623708942304 1.0000   
         C         C         1.0       0.1373376289381908  0.8336269638610166  0.15338613507498125          1.0000   
         C         C         1.0       0.14355967270615025           0.8053196857211458 0.16774206844240958          1.0000   
         C         C         1.0       0.16770420678718917           0.7966498657754871 0.16740321950392836          1.0000   
         C         C         1.0       0.17407552848151134           0.7719143390654831 0.17621574825050285          1.0000   
         C         C         1.0       0.1552027963597804  0.754820518963533   0.18951332464084522          1.0000   
         C         C         1.0       0.131183140459237   0.7643392988867029  0.19308263481501658          1.0000   
         C         C         1.0       0.12539210925568423           0.7886888578033355 0.18275973054072278          1.0000   
         C         C         1.0       0.16647750623695587           0.8557134475873407 0.21790657103200975          1.0000   
         C         C         1.0       0.1696816103654688  0.8649212601763971  0.26434597438880036          1.0000   
         C         C         1.0       0.15271155801450886           0.8631381561907514 0.3006682009048622 1.0000   
         C         C         1.0       0.12863590121650656           0.857341992738428  0.28511748303696416          1.0000   
         C         C         1.0       0.12348827577259262           0.8493042485908344 0.23861281055418104          1.0000   
         C         C         1.0       0.1428758879389642  0.8469603803454926  0.2037940909347581 1.0000   
         C         C         1.0       0.16168958262877778           0.8614770277517845 0.357644001192118  1.0000   
         C         C         1.0       0.2397897861729126  0.848617983275482   0.4022314042794556 1.0000   
         C         C         1.0       0.22533012605955083           0.863535796633177  0.42931427508850645          1.0000   
         C         C         1.0       0.20101732658346372           0.8675599912850517 0.41571057355487256          1.0000   
         C         C         1.0       0.19020752508780586           0.8575439104439    0.3731522747286999 1.0000   
         C         C         1.0       0.20536117111090757           0.8408507021815124 0.34663189065305566          1.0000   
         C         C         1.0       0.22973420731414423           0.836936298464442  0.36176031473234377          1.0000   
         C         C         1.0       0.14816355822800786           0.8384356156849824 0.3819988005240314 1.0000   
         C         C         1.0       0.14747105255408322           0.8163609652253585 0.35725380673894663          1.0000   
         C         C         1.0       0.14126828753725595           0.7947056389850365 0.3800459970545643 1.0000   
         C         C         1.0       0.1353035999012028  0.793306502086097   0.4285272181408784 1.0000   
         C         C         1.0       0.13189148589300068           0.8165174810570318 0.45194232708905346          1.0000   
         C         C         1.0       0.14073110210291495           0.8384995205625122 0.430937020647652  1.0000   
         C         C         1.0       0.1296377459932699  0.8952103999091227  0.3921858322873422 1.0000   
         C         C         1.0       0.12433449771306118           0.9201590062838342 0.4013366638105777 1.0000   
         C         C         1.0       0.14028235075687706           0.9387329707328456 0.394284586055615  1.0000   
         C         C         1.0       0.16171169707431823           0.9341399303752767 0.36751262916957333          1.0000   
         C         C         1.0       0.1678234674277607  0.9094392904907974  0.35752724412286785          1.0000   
         C         C         1.0       0.15246985403592472           0.8894090633770796 0.37052623479029234          1.0000   
         H         H         1.0       0.1464688495459723  0.8827601829338739  0.13395652786666462          1.0000   
         H         H         1.0       0.16669064579941678           0.8132943392677152 0.07706864230827086          1.0000   
         H         H         1.0       0.1875593102232288  0.8346483178190958  0.00993033146247524          1.0000   
         H         H         1.0       0.16511279534683138           0.9051329535681496 0.06915094208081578          1.0000   
         H         H         1.0       0.18243023425076949           0.8094100144581615 0.1552901191723562 1.0000   
         H         H         1.0       0.19195099781457362           0.7648657422372762 0.16484118519209345          1.0000   
         H         H         1.0       0.11400394100987271           0.7530420943597066 0.19745859841097027          1.0000   
         H         H         1.0       0.1047534862664153  0.7937920344585273  0.1859557512850339 1.0000   
         H         H         1.0       0.1836038285102967  0.8544136150638619  0.19247875519881377          1.0000   
         H         H         1.0       0.18788710389328805           0.8713010188543818 0.2719228700975102 1.0000   
         H         H         1.0       0.11131382815695755           0.859053701909657  0.3071256771629031 1.0000   
         H         H         1.0       0.10473237594236198           0.8437549387064148 0.2270475298152876 1.0000   
         H         H         1.0       0.2328645865428283  0.8690503412383431  0.46492331438103957          1.0000   
         H         H         1.0       0.18939146525930386           0.878001943159499  0.4412005430513993 1.0000   
         H         H         1.0       0.19702044796153048           0.8284763785698674 0.31946824904374777          1.0000   
         H         H         1.0       0.2393310941389298  0.8215281318437546  0.3431111330946414 1.0000   
         H         H         1.0       0.15622015652594928           0.8142656468520043 0.3217984169212275 1.0000   
         H         H         1.0       0.1406067388667398  0.7783335882693312  0.3571370675295986 1.0000   
         H         H         1.0       0.12553749770667053           0.8163748693402759 0.4914427944640243 1.0000   
         H         H         1.0       0.14250538534695914           0.8564348985295707 0.4504546634473374 1.0000   
         H         H         1.0       0.11373868357290487           0.8816620735515708 0.3992862425454484 1.0000   
         H         H         1.0       0.10802953007854146           0.9234416562830868 0.425976132476914  1.0000   
         H         H         1.0       0.17433594394121776           0.950167233539702  0.36092119900336744          1.0000   
         H         H         1.0       0.18408178666447242           0.9058123516918374 0.34042609799109175          1.0000   
         C         C         1.0       0.2976755311321503  0.8691248351150462  0.38857923933972255          1.0000   
         C         C         1.0       0.3028087303392222  0.8538229307699319  0.3470012908000364 1.0000   
         C         C         1.0       0.32026518247428637           0.8618774841213392 0.314387846223553  1.0000   
         C         C         1.0       0.3327121137148656  0.8849856557107282  0.3190348151102825 1.0000   
         C         C         1.0       0.3256493846782107  0.9006226594487783  0.3599183005032689 1.0000   
         C         C         1.0       0.3084031587189408  0.892391465470183   0.39264395337335134          1.0000   
         H         H         1.0       0.294887449515217   0.8348583697907639  0.3422459005667795 1.0000   
         H         H         1.0       0.32649011224499114           0.8491881968399271 0.2892780667838079 1.0000   
         H         H         1.0       0.33546706498508855           0.9194547317634298 0.3615472286317159 1.0000   
         H         H         1.0       0.30495853008293555           0.9046400244065637 0.4255459506626891 1.0000   
         C         C         1.0       0.33615871357033716           0.9334251576791521 0.26396179258616814          1.0000   
         C         C         1.0       0.3581087684069994  0.9206485445340924  0.27401914558512475          1.0000   
         C         C         1.0       0.3809902043040959  0.932398608504832   0.26609930014353805          1.0000   
         C         C         1.0       0.38156733256395575           0.9577028063119077 0.2503972849734125 1.0000   
         C         C         1.0       0.35958510183255593           0.9699921911098154 0.2373167592393194 1.0000   
         C         C         1.0       0.33612368003793813           0.9577206137165206 0.24636124034262322          1.0000   
         C         C         1.0       0.35554228633074825           0.891237487079506  0.28554201302345367          1.0000   
         C         C         1.0       0.35383932369925253           0.8805315385818924 0.23057844880592418          1.0000   
         C         C         1.0       0.3749552803571256  0.8757331937926907  0.20483611022628878          1.0000   
         C         C         1.0       0.3745288680727247  0.8681735394300275  0.1549324066865538 1.0000   
         C         C         1.0       0.35160659746517875           0.8670348968382503 0.12969269509129375          1.0000   
         C         C         1.0       0.3298293543373328  0.8747177653408312  0.1550569074896558 1.0000   
         C         C         1.0       0.3312435255612521  0.8795894758489408  0.20466634975937936          1.0000   
         C         C         1.0       0.38808011390022307           0.8951461844171886 0.3560538847373842 1.0000   
         C         C         1.0       0.40409067913503116           0.8846682153168203 0.3910924572378734 1.0000   
         C         C         1.0       0.41170285517886496           0.8600321598308981 0.3885081707722614 1.0000   
         C         C         1.0       0.400693376114327   0.8453882220353356  0.35282358649102336          1.0000   
         C         C         1.0       0.3837232169590595  0.8551918598499858  0.31636498319060563          1.0000   
         C         C         1.0       0.37750041794542977           0.8794982547974596 0.3185660608921456 1.0000   
         C         C         1.0       0.4285261377452253  0.8478219015733656  0.4296490670523091 1.0000   
         C         C         1.0       0.4956770911050756  0.8268791662725877  0.347164154704305  1.0000   
         C         C         1.0       0.4879003023020653  0.8514302888701519  0.3474628029142635 1.0000   
         C         C         1.0       0.46550439333318    0.8575963072182824  0.36795425652558905          1.0000   
         C         C         1.0       0.45052999430333235           0.8400458314568533 0.39279679137581497          1.0000   
         C         C         1.0       0.45722868535444466           0.8146834741567899 0.38488343074751225          1.0000   
         C         C         1.0       0.4791329634742915  0.8076221959195413  0.36184281350970504          1.0000   
         C         C         1.0       0.4155085854679207  0.8259018951157753  0.45934768072972143          1.0000   
         C         C         1.0       0.3896512758477332  0.8221442647177589  0.4661982453770453 1.0000   
         C         C         1.0       0.3805628789008598  0.7995940657195907  0.48439141771889077          1.0000   
         C         C         1.0       0.3970845820819077  0.782280249908033   0.5037573867530608 1.0000   
         C         C         1.0       0.422280231323828   0.788512538158303   0.5092480174952508 1.0000   
         C         C         1.0       0.4306194265044629  0.8097310254764769  0.4856315873645773 1.0000   
         C         C         1.0       0.4628818358872819  0.8643712660930616  0.48794759437258806          1.0000   
         C         C         1.0       0.47051994954694765           0.8730252963220705 0.5319600158018966 1.0000   
         C         C         1.0       0.4524238854081077  0.8789364582046234  0.5668916560647584 1.0000   
         C         C         1.0       0.42815221183872487           0.8819354418716664 0.5513038641473414 1.0000   
         C         C         1.0       0.4206420474203179  0.8766236413898248  0.5051638069064356 1.0000   
         C         C         1.0       0.43807157959751797           0.866276646662526  0.4728920156280119 1.0000   
         H         H         1.0       0.3181220641820257  0.9263443334703788  0.27500708052270784          1.0000   
         H         H         1.0       0.3976936112176806  0.9228346765488965  0.2686307048605901 1.0000   
         H         H         1.0       0.39985018874853445           0.9657722530026324 0.24308180266757598          1.0000   
         H         H         1.0       0.3174094744307723  0.9675209768048048  0.23990284712149132          1.0000   
         H         H         1.0       0.3940943999611035  0.8756013891556516  0.21939633941221762          1.0000   
         H         H         1.0       0.3914837189594184  0.8625710978759017  0.13792491368041923          1.0000   
         H         H         1.0       0.3116171784918746  0.8753362297676408  0.13820937283898466          1.0000   
         H         H         1.0       0.3152442276994994  0.8819739181307316  0.22751394389447116          1.0000   
         H         H         1.0       0.38484842333649444           0.9142427448451951 0.3571065520942745 1.0000   
         H         H         1.0       0.41320639225445316           0.8975288501894342 0.41649705137592136          1.0000   
         H         H         1.0       0.40523578344733446           0.8254179993433592 0.35119526998953543          1.0000   
         H         H         1.0       0.37570543929043826           0.8426026546702303 0.28783495399929404          1.0000   
         H         H         1.0       0.4991432162165553  0.8661545893092915  0.33754328011915824          1.0000   
         H         H         1.0       0.4618187412236     0.8784540387573606  0.37183902422161874          1.0000   
         H         H         1.0       0.4462499628425893  0.7988744341764143  0.3955366731845961 1.0000   
         H         H         1.0       0.4828481362196185  0.7878537121748734  0.35647048338282866          1.0000   
         H         H         1.0       0.3757087635934564  0.8361128803105297  0.4510016142461288 1.0000   
         H         H         1.0       0.361588376591582   0.7935159410040512  0.4843765479121755 1.0000   
         H         H         1.0       0.43466816947504666           0.7748986822471582 0.5248800075368426 1.0000   
         H         H         1.0       0.4497606824963513  0.8127172000717493  0.48634682512824806          1.0000   
         H         H         1.0       0.47595186172188747           0.8534261825626325 0.4675215946584235 1.0000   
         H         H         1.0       0.48963323735319614           0.8707402071869211 0.542939316863158  1.0000   
         H         H         1.0       0.41480500490221317           0.8862273553153014 0.5817119841782612 1.0000   
         H         H         1.0       0.40012181337591607           0.8759796661524072 0.4961058908932617 1.0000   
         C         C         1.0       0.036801507902548256          0.8009931258706589 0.699708227394986  1.0000   
         C         C         1.0       0.06113615613610666           0.8089558381509542 0.6982972562151455 1.0000   
         C         C         1.0       0.07961917310682395           0.7906538276926819 0.6922482289989754 1.0000   
         C         C         1.0       0.07413090262957128           0.7660212086176998 0.685310705659125  1.0000   
         C         C         1.0       0.048325465559922606          0.7591695873967713 0.6857103454075696 1.0000   
         C         C         1.0       0.030350348651386718          0.7768881679045402 0.69301192555025   1.0000   
         H         H         1.0       0.06487337902133622           0.8286299112487626 0.70181440021795   1.0000   
         H         H         1.0       0.09900182545976141           0.7973585858584883 0.6881192756259789 1.0000   
         H         H         1.0       0.04246737627815392           0.7392927831631586 0.6824311544630819 1.0000   
         H         H         1.0       0.011390128790582191          0.769634191637384  0.6993433954842175 1.0000   
         C         C         1.0       0.0802212556769425  0.7258736309819961  0.7607160129534478 1.0000   
         C         C         1.0       0.09769127583036437           0.7406856231333943 0.7377001781793772 1.0000   
         C         C         1.0       0.11050439419858146           0.757569310883804  0.7678803742620397 1.0000   
         C         C         1.0       0.10497566856515789           0.7603044945287301 0.8170810323765294 1.0000   
         C         C         1.0       0.08607069038776242           0.7470578145845151 0.837134144433521  1.0000   
         C         C         1.0       0.07471272236292512           0.7286418614695156 0.8101000146397654 1.0000   
         C         C         1.0       0.09584112285840797           0.7458492408364192 0.679621076171816  1.0000   
         C         C         1.0       0.12175342573654484           0.7564929643807529 0.6566956982831414 1.0000   
         C         C         1.0       0.12211177086868578           0.7717744286989265 0.6157552219555829 1.0000   
         C         C         1.0       0.14440311675180995           0.7792234822514162 0.5943797765765695 1.0000   
         C         C         1.0       0.16671672419269754           0.7702449096626571 0.6098044357121107 1.0000   
         C         C         1.0       0.16724828845983336           0.7543535870691317 0.6487919974462834 1.0000   
         C         C         1.0       0.14531366337927168           0.7482553060954705 0.673841267758587  1.0000   
         C         C         1.0       0.10215599627866363           0.7012672285013716 0.650756629939967  1.0000   
         C         C         1.0       0.09808379723323658           0.6816370271978907 0.6203278298098958 1.0000   
         C         C         1.0       0.08299899687118135           0.683483726370811  0.5786498568183241 1.0000   
         C         C         1.0       0.06953377165949706           0.7059491159946109 0.5723202392732455 1.0000   
         C         C         1.0       0.07390932982694928           0.7250156775012044 0.6029613028864794 1.0000   
         C         C         1.0       0.08847229747810866           0.7220573023034407 0.6450512387594498 1.0000   
         C         C         1.0       0.0845533119073468  0.6658238811913588  0.5319281732298703 1.0000   
         C         C         1.0       0.09111689194700695           0.584956173371788  0.5678546173815441 1.0000   
         C         C         1.0       0.07960021972245174           0.6009822490894634 0.599354580756146  1.0000   
         C         C         1.0       0.07872036333131566           0.625729979491716  0.5876021647274129 1.0000   
         C         C         1.0       0.09032224508640056           0.6369281695030842 0.5465979620770482 1.0000   
         C         C         1.0       0.10457679842750658           0.6205030619829249 0.519703093043056  1.0000   
         C         C         1.0       0.10300930886194513           0.5940560931780264 0.5264888199085177 1.0000   
         C         C         1.0       0.10545464164716355           0.6800683394850737 0.500935683366061  1.0000   
         C         C         1.0       0.09732708609837268           0.6949406520244847 0.46213658537596003          1.0000   
         C         C         1.0       0.11311305424370467           0.7126575516850243 0.44185461823787975          1.0000   
         C         C         1.0       0.13336594634816581           0.7209064022010158 0.46973586976531   1.0000   
         C         C         1.0       0.14190031761401697           0.7060439230547674 0.508171563881889  1.0000   
         C         C         1.0       0.1289668973626725  0.6845860283705227  0.5211045711345044 1.0000   
         C         C         1.0       0.06131263466183267           0.6496570540151182 0.45372529036229303          1.0000   
         C         C         1.0       0.03961418252915204           0.647118037247622  0.4255520568991456 1.0000   
         C         C         1.0       0.01727348721228962           0.6516858081623988 0.4446386816329971 1.0000   
         C         C         1.0       0.01459599173965517           0.6577586124657487 0.4922662071095654 1.0000   
         C         C         1.0       0.03611149109566756           0.6623316631743057 0.5209273539443136 1.0000   
         C         C         1.0       0.05948937136919917           0.6584406073132023 0.50267347549622   1.0000   
         H         H         1.0       0.06837968284543457           0.7139623096169457 0.7414551852477537 1.0000   
         H         H         1.0       0.12396140196032206           0.7708920643812579 0.7518889222444726 1.0000   
         H         H         1.0       0.11544903762793084           0.7754697056436352 0.837940012828401  1.0000   
         H         H         1.0       0.05967411936315484           0.7171901823163834 0.8217246925519069 1.0000   
         H         H         1.0       0.10561799095356748           0.7800194521654533 0.5999998823602674 1.0000   
         H         H         1.0       0.14269710972772115           0.7919847873378094 0.563435489744771  1.0000   
         H         H         1.0       0.18485287622990837           0.7489263058242978 0.6657362210023174 1.0000   
         H         H         1.0       0.14708887573387988           0.735810523357365  0.7042793702523966 1.0000   
         H         H         1.0       0.1152519865110903  0.6983772905741675  0.6795047140282768 1.0000   
         H         H         1.0       0.1082380176588304  0.6642317186475973  0.625597112902725  1.0000   
         H         H         1.0       0.05761950952474696           0.7101260700621692 0.5390715484011807 1.0000   
         H         H         1.0       0.062177786232366625          0.741456745844462  0.593613965075146  1.0000   
         H         H         1.0       0.07086737431408965           0.5931573792991274 0.6289291761645235 1.0000   
         H         H         1.0       0.06660963938203496           0.638111324911657  0.6098746054165661 1.0000   
         H         H         1.0       0.11544324690736367           0.6268983209231892 0.48849864548436495          1.0000   
         H         H         1.0       0.1137809339026352  0.580775564145023   0.5047911108556151 1.0000   
         H         H         1.0       0.07856844220450653           0.6938356429369951 0.4458904540757094 1.0000   
         H         H         1.0       0.10799560014105668           0.7232580890541342 0.409611745569586  1.0000   
         H         H         1.0       0.1570248935678265  0.712912361433126   0.5285866256271479 1.0000   
         H         H         1.0       0.13656192895106817           0.6766815526645026 0.5541265335948601 1.0000   
         H         H         1.0       0.07963683288056575           0.6453210402971423 0.44257652026323213          1.0000   
         H         H         1.0       0.04007244232423489           0.6418886148871795 0.3872399691592755 1.0000   
         H         H         1.0       0.9965275055641805  0.6622150717271136  0.5091728413722    1.0000   
         H         H         1.0       0.03523588465384256           0.6685979942816737 0.55809113147511   1.0000   
         C         C         1.0       0.056383133385195267          0.5203527766560866 0.5693481489834747 1.0000   
         C         C         1.0       0.06571038968512187           0.5074842294363646 0.6094262664928078 1.0000   
         C         C         1.0       0.05866495813315999           0.48303567705612044          0.619748351267272  1.0000   
         C         C         1.0       0.04053191061019912           0.4706886663241675 0.59155943782663   1.0000   
         C         C         1.0       0.03174178215520129           0.4846493870946519 0.5494728610410119 1.0000   
         C         C         1.0       0.040014949919542575          0.5083291286843377 0.5390450526467164 1.0000   
         H         H         1.0       0.08029600692476235           0.5156419137083613 0.633034835781505  1.0000   
         H         H         1.0       0.07012748671200168           0.473912227537631  0.6485198808043341 1.0000   
         H         H         1.0       0.017527117777146106          0.47478992786672297          0.5270965148675659 1.0000   
         H         H         1.0       0.033555521978906766          0.5167289286251201 0.5061597148609158 1.0000   
         C         C         1.0       0.9840530791612875  0.46390115462325876           0.6078460816082132 1.0000   
         C         C         1.0       0.9996534696821613  0.4423382786972843  0.6037497170948094 1.0000   
         C         C         1.0       0.9877956110747536  0.4197703826358056  0.604108903158851  1.0000   
         C         C         1.0       0.9610195412041406  0.4172660104472122  0.6021521674546283 1.0000   
         C         C         1.0       0.9468120240869073  0.43848771957535754           0.6085253388059207 1.0000   
         C         C         1.0       0.9583990554858087  0.46138331981109776           0.6106487125273883 1.0000   
         C         C         1.0       0.030085032676975487          0.4438780592499342 0.6015167229238744 1.0000   
         C         C         1.0       0.04043421569500083           0.43143154543012924          0.6517983828600752 1.0000   
         C         C         1.0       0.055568651716385586          0.41092704069459773          0.656277374345251  1.0000   
         C         C         1.0       0.06758696995624462           0.40615282580239503          0.7002360705576317 1.0000   
         C         C         1.0       0.06148270288437277           0.4199366988769025 0.7422576920565368 1.0000   
         C         C         1.0       0.04614738934492016           0.4402985067777005 0.7379612482178028 1.0000   
         C         C         1.0       0.03367620356194978           0.4442748735902312 0.6953954600961633 1.0000   
         C         C         1.0       0.024561055239916918          0.42382903338283207          0.5109382043780354 1.0000   
         C         C         1.0       0.03396318054412855           0.4207520452914495 0.46524782339156073          1.0000   
         C         C         1.0       0.05868796543777729           0.4246516205024842 0.4524624714022062 1.0000   
         C         C         1.0       0.07440252014757837           0.4242487121068768 0.49396542000258226          1.0000   
         C         C         1.0       0.06566686450364285           0.4287436308312033 0.5413317892919979 1.0000   
         C         C         1.0       0.04021476409560276           0.4300789823402006 0.5510449214841313 1.0000   
         C         C         1.0       0.06651350500321024           0.42728923294674637          0.39469540569459266          1.0000   
         C         C         1.0       0.07438358521983823           0.3526348106274361 0.32760679548586374          1.0000   
         C         C         1.0       0.055300215397407496          0.3679276728926825 0.30885403944293677          1.0000   
         C         C         1.0       0.051027576583322555          0.3903120933792799 0.33335769751211525          1.0000   
         C         C         1.0       0.06527819050033161           0.39802748102898916          0.37349868300460765          1.0000   
         C         C         1.0       0.07932634862547645           0.3797271059090579 0.39774461348580603          1.0000   
         C         C         1.0       0.08478193522797385           0.35660300262515565          0.37404338751973426          1.0000   
         C         C         1.0       0.09340994772165148           0.4388379182974931 0.3901825529451409 1.0000   
         C         C         1.0       0.0989483488110469  0.4616628246736151  0.41125738694629727          1.0000   
         C         C         1.0       0.12350706488529034           0.46898425737352173          0.41809290511286545          1.0000   
         C         C         1.0       0.1427816251360218  0.4556046181884221  0.39726702047395146          1.0000   
         C         C         1.0       0.13756624072206455           0.43367786460892255          0.37250771375006286          1.0000   
         C         C         1.0       0.1130239432482147  0.4261971007863704  0.36698536973208185          1.0000   
         C         C         1.0       0.05167061964288351           0.44831488196526204          0.31173588458088025          1.0000   
         C         C         1.0       0.03648013789672478           0.46428725819575   0.2836796527551607 1.0000   
         C         C         1.0       0.018151325302319783          0.47880765270080783          0.3053137570289522 1.0000   
         C         C         1.0       0.017163358525987323          0.47902095123296934          0.3561458286938292 1.0000   
         C         C         1.0       0.030832101080805738          0.46266786092515894          0.3841991670117501 1.0000   
         C         C         1.0       0.04834422664434807           0.4462680071124212 0.3629809874975159 1.0000   
         H         H         1.0       0.9918279210380277  0.48184465215864347           0.6151836355266158 1.0000   
         H         H         1.0       0.9993368635972921  0.4021371479648441  0.5993944641010313 1.0000   
         H         H         1.0       0.9529396102779956  0.4003067370244058  0.5911265987560359 1.0000   
         H         H         1.0       0.9472330698803675  0.47819567658478196           0.6193254424366123 1.0000   
         H         H         1.0       0.06220838968405973           0.4004721177090037 0.6255318053682156 1.0000   
         H         H         1.0       0.083161313603494   0.39205250038943185           0.7067126480743278 1.0000   
         H         H         1.0       0.0424407485758262  0.45313467207984337           0.7704358155946325 1.0000   
         H         H         1.0       0.020815693652043388          0.46054784784247876          0.6923075120599022 1.0000   
         H         H         1.0       0.0046462180722053326         0.42215213914211586          0.5137555401706694 1.0000   
         H         H         1.0       0.021048246609796317          0.419186049718686  0.436093794256805  1.0000   
         H         H         1.0       0.0947860120778565  0.4245241488316968  0.48978603149410843          1.0000   
         H         H         1.0       0.07987913467493547           0.4311413403946891 0.5699030132385735 1.0000   
         H         H         1.0       0.04732231751510074           0.3650327305583295 0.2723899551523531 1.0000   
         H         H         1.0       0.039279136040885385          0.40489268763437536          0.3128825697891701 1.0000   
         H         H         1.0       0.09017418096711492           0.38449597249402273          0.42998778046597613          1.0000   
         H         H         1.0       0.10130387153783256           0.346960005505695  0.38635020632928835          1.0000   
         H         H         1.0       0.08422106425584493           0.47258905007191104          0.4279277298441977 1.0000   
         H         H         1.0       0.1279009944334014  0.4865144602259786  0.43792293836103463          1.0000   
         H         H         1.0       0.1528009623380897  0.42160753988173066           0.3591241043171876 1.0000   
         H         H         1.0       0.11177774273145695           0.4078093079270106 0.34834274293355333          1.0000   
         H         H         1.0       0.06664466568978619           0.4381567712876551 0.29412704969854464          1.0000   
         H         H         1.0       0.04171488282881753           0.4653491238469605 0.24578015574722206          1.0000   
         H         H         1.0       0.004482421882861136          0.49116870472426566          0.376142818034583  1.0000   
         H         H         1.0       0.03127413068711548           0.4646986165937672 0.42512041959710745          1.0000   
         C         C         1.0       0.8464986063632531  0.27513068298537824           0.674646914866971  1.0000   
         C         C         1.0       0.8696635196450649  0.2676294348355948  0.6581320031961589 1.0000   
         C         C         1.0       0.8905862034732557  0.2831252108884218  0.6647438590572309 1.0000   
         C         C         1.0       0.8875261158439084  0.3070166862751699  0.6835827535758191 1.0000   
         C         C         1.0       0.8634965180381312  0.3145561255089794  0.696703611944546  1.0000   
         C         C         1.0       0.8435035819452176  0.2989385557381283  0.6937817305798334 1.0000   
         H         H         1.0       0.8725997377696237  0.24886049506886088           0.6427078324859313 1.0000   
         H         H         1.0       0.9078637516805765  0.2751343779588218  0.6477650905392753 1.0000   
         H         H         1.0       0.8577581276955806  0.3319073250027974  0.7107417866870904 1.0000   
         H         H         1.0       0.8247986902291804  0.3054568141295958  0.7032460951695115 1.0000   
         C         C         1.0       0.8915412118268257  0.3637843834007209  0.6547640877211558 1.0000   
         C         C         1.0       0.9050886181992843  0.35366744650542414           0.693857962033098  1.0000   
         C         C         1.0       0.9188096845543161  0.3700684993361932  0.7244944183192288 1.0000   
         C         C         1.0       0.9177043965863674  0.3952263930036363  0.7150910418558905 1.0000   
         C         C         1.0       0.9037335475088926  0.4042928569525064  0.6751496648616128 1.0000   
         C         C         1.0       0.8906163398094412  0.38831632472379496           0.6466873939208486 1.0000   
         C         C         1.0       0.9110537517438902  0.3241174428959814  0.6981232617370262 1.0000   
         C         C         1.0       0.9362884252655875  0.3223937220377491  0.6664532683487107 1.0000   
         C         C         1.0       0.9588499764144883  0.32911853777993416           0.6897601741570717 1.0000   
         C         C         1.0       0.9804486876410697  0.3299768800582296  0.6618341188671318 1.0000   
         C         C         1.0       0.9801304633278278  0.3261383095653525  0.6113669325196842 1.0000   
         C         C         1.0       0.9581668320422791  0.3207427082326776  0.5896700328587042 1.0000   
         C         C         1.0       0.9360103647775699  0.3187144225977913  0.6158020675384805 1.0000   
         C         C         1.0       0.9029361394812019  0.32194415582600383           0.7949266725286881 1.0000   
         C         C         1.0       0.9064125191753406  0.31085748601049673           0.8416928750462592 1.0000   
         C         C         1.0       0.9247260599046503  0.29342967398452086           0.8498372286521005 1.0000   
         C         C         1.0       0.9384828278125025  0.28455664385226354           0.8081007853615113 1.0000   
         C         C         1.0       0.9311354619478593  0.29246860592910534           0.7605221127878706 1.0000   
         C         C         1.0       0.9159594782526587  0.3142270899514976  0.7531711711677923 1.0000   
         C         C         1.0       0.9320386673321632  0.2823968806107166  0.9035490873037905 1.0000   
         C         C         1.0       0.99076357346104    0.3397242374796834  0.9344339281922502 1.0000   
         C         C         1.0       0.9649932611060302  0.34372578198018244           0.9441776282986033 1.0000   
         C         C         1.0       0.9482056114932222  0.3256905476034529  0.9359477845431311 1.0000   
         C         C         1.0       0.9545427851269193  0.3021075178483719  0.9170735380368942 1.0000   
         C         C         1.0       0.979243731942303   0.29898896613672654           0.906673122982008  1.0000   
         C         C         1.0       0.9973418906606341  0.3161444217699562  0.9164453852486771 1.0000   
         C         C         1.0       0.9382481476754888  0.25355722241612233           0.9059604860874387 1.0000   
         C         C         1.0       0.9252510563106383  0.23684124201903178           0.875383429832343  1.0000   
         C         C         1.0       0.9279658421972801  0.21153668851736496           0.878976214463952  1.0000   
         C         C         1.0       0.9443884203612115  0.2017622503594779  0.9142881378825775 1.0000   
         C         C         1.0       0.9571915827855489  0.21779091084630323           0.9453501183911961 1.0000   
         C         C         1.0       0.954452408227228   0.2433968286675429  0.9396748889948834 1.0000   
         C         C         1.0       0.9190860850225085  0.284029845362701   0.9910707797174071 1.0000   
         C         C         1.0       0.9032895745855988  0.2796112805797419  0.028593038916668423         1.0000   
         C         C         1.0       0.8794058331607681  0.27182136569314586           0.019881864413853423         1.0000   
         C         C         1.0       0.8712358080996367  0.26939699736182654           0.9710944523729799 1.0000   
         C         C         1.0       0.8864606551650779  0.27661370681673403           0.9327290958942903 1.0000   
         C         C         1.0       0.9109087855797752  0.283406058107033   0.9432207355800248 1.0000   
         H         H         1.0       0.8811138618870997  0.3539372916867065  0.6295742271839931 1.0000   
         H         H         1.0       0.9309913814715645  0.36167259642693933           0.7528427582105193 1.0000   
         H         H         1.0       0.9301143079669583  0.40678401765736355           0.7382031892110804 1.0000   
         H         H         1.0       0.8787040310003271  0.3969080372363452  0.6177992498336526 1.0000   
         H         H         1.0       0.9613403756548508  0.3351749964453001  0.7265559749613311 1.0000   
         H         H         1.0       0.9979887505525707  0.33629816825012154           0.6814358745202738 1.0000   
         H         H         1.0       0.9570826560100196  0.3162837679374934  0.5518182572612491 1.0000   
         H         H         1.0       0.9181270924096298  0.31518259785718067           0.5951566184280214 1.0000   
         H         H         1.0       0.8881140390050541  0.3357020229619754  0.7888006197921493 1.0000   
         H         H         1.0       0.8965873906875977  0.32047966194432426           0.8694649521271656 1.0000   
         H         H         1.0       0.9544164478705914  0.2737671779578581  0.8124484980216471 1.0000   
         H         H         1.0       0.9384968560880078  0.28079409574464703           0.7294990431789747 1.0000   
         H         H         1.0       0.9604435947349746  0.3625757944157059  0.9553977857525979 1.0000   
         H         H         1.0       0.9289722885331149  0.3331947165931247  0.9353303022315153 1.0000   
         H         H         1.0       0.9871716641065588  0.280895709602419   0.8945966228494442 1.0000   
         H         H         1.0       0.01741738519784275           0.31243019356700574          0.9085778008272238 1.0000   
         H         H         1.0       0.910338512291931   0.24421029324041804           0.8516695698914792 1.0000   
         H         H         1.0       0.9168205353642856  0.20110184628861938           0.8534731734049168 1.0000   
         H         H         1.0       0.9692553257167112  0.2113948901119224  0.9731275222557494 1.0000   
         H         H         1.0       0.9652645319875364  0.25577930844457697           0.9639868208890213 1.0000   
         H         H         1.0       0.9389347509985032  0.2883703846495838  0.0013975126505452184        1.0000   
         H         H         1.0       0.9105360485022214  0.2802440336685789  0.0650015108426171 1.0000   
         H         H         1.0       0.8522431026482458  0.2644899537398241  0.9628050867638105 1.0000   
         H         H         1.0       0.8804391071239543  0.27185698489284615           0.895857488178497  1.0000   
         C         C         1.0       0.6025975327532074  0.29445389833307434           0.8074343426370258 1.0000   
         C         C         1.0       0.6096104368182689  0.27251912948729623           0.7825373764502295 1.0000   
         C         C         1.0       0.6341693826822667  0.27006447141061607           0.7647183219281724 1.0000   
         C         C         1.0       0.6510703165220807  0.2886391033245217  0.7729784734140961 1.0000   
         C         C         1.0       0.6445468809828684  0.3072156350583867  0.8065507231470753 1.0000   
         C         C         1.0       0.6205953963030229  0.31107052592879525           0.8213195955149585 1.0000   
         H         H         1.0       0.5964827914663788  0.25746229751045574           0.779675899028175  1.0000   
         H         H         1.0       0.6368820324300922  0.2546436987482965  0.7417940196660121 1.0000   
         H         H         1.0       0.6605992983316578  0.3192964193276565  0.8144855261514881 1.0000   
         H         H         1.0       0.6145641578691879  0.3279733483647434  0.838992872368958  1.0000   
         C         C         1.0       0.6641374288622006  0.33534684160595574           0.7111558388489264 1.0000   
         C         C         1.0       0.6822058451542243  0.31726003060152375           0.721474808075649  1.0000   
         C         C         1.0       0.7074678445158509  0.32308832783344343           0.7091131543927709 1.0000   
         C         C         1.0       0.7130092653429272  0.3432946247614903  0.6804169711363126 1.0000   
         C         C         1.0       0.6942284172699145  0.3587896378393778  0.663103531398872  1.0000   
         C         C         1.0       0.669887826045269   0.3553576215142448  0.6812012057545556 1.0000   
         C         C         1.0       0.6762126563313144  0.28916560511730627           0.7404231955000646 1.0000   
         C         C         1.0       0.6753919665948004  0.27554240303291483           0.687775218422396  1.0000   
         C         C         1.0       0.6981484271700217  0.2662886196065291  0.668961696167861  1.0000   
         C         C         1.0       0.6986024582423463  0.2544591346643723  0.623208163052744  1.0000   
         C         C         1.0       0.6776289472026606  0.25381092890848106           0.5958241557374676 1.0000   
         C         C         1.0       0.6557298079645502  0.2669641987750647  0.610483007888179  1.0000   
         C         C         1.0       0.6556307467369584  0.2777698696229358  0.6548390928651654 1.0000   
         C         C         1.0       0.7081262905949147  0.29193907898925114           0.814647424413668  1.0000   
         C         C         1.0       0.7268229363953831  0.2810540357973865  0.8422015154006036 1.0000   
         C         C         1.0       0.7284570310304895  0.2543582571803795  0.8432059194871209 1.0000   
         C         C         1.0       0.712709763274483   0.2414542468990786  0.8130003513587499 1.0000   
         C         C         1.0       0.6964868380556717  0.2524423739494332  0.7823593467889582 1.0000   
         C         C         1.0       0.69443014998374    0.27801437203902046           0.7801212863155426 1.0000   
         C         C         1.0       0.7514287026835765  0.24207009401145455           0.8750167275286438 1.0000   
         C         C         1.0       0.8080591916726044  0.24096816660175904           0.7583480264752455 1.0000   
         C         C         1.0       0.808264991223002   0.26026859098430993           0.7929887054052062 1.0000   
         C         C         1.0       0.7898887322575481  0.2612917835466914  0.8286904173023523 1.0000   
         C         C         1.0       0.7719222436426855  0.24156260985238354           0.832470705917     1.0000   
         C         C         1.0       0.7721466689805642  0.22233480430766486           0.7984479650578498 1.0000   
         C         C         1.0       0.7895793732654305  0.2227855661229628  0.7613307881025357 1.0000   
         C         C         1.0       0.7451714577225196  0.21496665470091855           0.895088810973256  1.0000   
         C         C         1.0       0.7220626537215191  0.20888493220469453           0.9153649350919227 1.0000   
         C         C         1.0       0.7163126415325318  0.18593914455920182           0.9300098551894389 1.0000   
         C         C         1.0       0.7345565321401185  0.16844955816757745           0.9362740589838536 1.0000   
         C         C         1.0       0.75893754001056    0.1734831102737101  0.9230769027229636 1.0000   
         C         C         1.0       0.7633387230502059  0.1969741663631331  0.9009554449479754 1.0000   
         C         C         1.0       0.7833949672368574  0.25496775605725475           0.9459782653364529 1.0000   
         C         C         1.0       0.7891645502126883  0.26711090830527995           0.9913004800972242 1.0000   
         C         C         1.0       0.7693552394960401  0.27552693304716236           0.018965001807428994         1.0000   
         C         C         1.0       0.7453887859589664  0.27345584488051944           0.0013593794867556852        1.0000   
         C         C         1.0       0.7401703910267534  0.26284633357656795           0.9566425083306966 1.0000   
         C         C         1.0       0.7588868362532143  0.25403147230084866           0.9271773192323917 1.0000   
         H         H         1.0       0.644750764433468   0.33164869830734933           0.7188948168475962 1.0000   
         H         H         1.0       0.7231468582057423  0.3115215438774356  0.7205736085080939 1.0000   
         H         H         1.0       0.7317741071743794  0.34728430833778134           0.6728136279719172 1.0000   
         H         H         1.0       0.6547964995093475  0.36540551755006295           0.6689695206291274 1.0000   
         H         H         1.0       0.7150742365426664  0.2664351039064567  0.6904405583545584 1.0000   
         H         H         1.0       0.7168095322727783  0.24832671085588415           0.6088244760516421 1.0000   
         H         H         1.0       0.6395005018400265  0.2676643142223075  0.5861046600214252 1.0000   
         H         H         1.0       0.637396048748308   0.28543752701713254           0.6666803473138282 1.0000   
         H         H         1.0       0.7092594500258259  0.31182473418478246           0.8162988068769566 1.0000   
         H         H         1.0       0.7406025257984225  0.29200090889372277           0.8627420574650619 1.0000   
         H         H         1.0       0.7146219555748595  0.22245962898619784           0.8151300170782828 1.0000   
         H         H         1.0       0.6838387736721939  0.24164603880535201           0.7591853601851033 1.0000   
         H         H         1.0       0.822605657863538   0.27629714015087686           0.7936425438951658 1.0000   
         H         H         1.0       0.7918897905936849  0.27564160203344407           0.858086269646267  1.0000   
         H         H         1.0       0.7567114650318536  0.2089762729833352  0.7951667886896953 1.0000   
         H         H         1.0       0.7881953204957804  0.20784983374486152           0.7372445127289408 1.0000   
         H         H         1.0       0.7069197534803212  0.22305558204223916           0.9131786218289852 1.0000   
         H         H         1.0       0.6988922039655697  0.18305819614411795           0.9457024352078148 1.0000   
         H         H         1.0       0.7736317381914437  0.1597146024896273  0.9289582714296604 1.0000   
         H         H         1.0       0.7826357483599913  0.19962111237050645           0.8927013725250524 1.0000   
         H         H         1.0       0.7990632467266311  0.24943460276645713           0.9215188774120432 1.0000   
         H         H         1.0       0.8081974613136003  0.2735573102930069  0.0007640197818603589        1.0000   
         H         H         1.0       0.7301151823231239  0.2799708722417022  0.021797916987478464         1.0000   
         H         H         1.0       0.720543219220004   0.2627747857349795  0.9453671050792231 1.0000   
         C         C         1.0       0.0473705423125642  0.6641963859498333  0.13108503988304143          1.0000   
         C         C         1.0       0.060519752429787604          0.6823338944316765 0.10834660572838928          1.0000   
         C         C         1.0       0.04961279553479832           0.7031761908184742 0.08714887553408746          1.0000   
         C         C         1.0       0.02560445472987549           0.7096676926918684 0.10024795006336107          1.0000   
         C         C         1.0       0.012682139635600942          0.6927057024785532 0.1297107531615127 1.0000   
         C         C         1.0       0.02266850167478309           0.6699070471460902 0.14371065581783515          1.0000   
         H         H         1.0       0.0776921399578396  0.6773563550527143  0.09119407919624689          1.0000   
         H         H         1.0       0.060953422663301685          0.7150470782610452 0.0662498479457656 1.0000   
         H         H         1.0       0.9933509755514429  0.6946146885696141  0.13994969809677515          1.0000   
         H         H         1.0       0.01066788508565164           0.6572521460046676 0.1641670110539688 1.0000   
         C         C         1.0       0.9712839807834501  0.7181380752119241  0.055690606686935595         1.0000   
         C         C         1.0       0.984100260948296   0.7384265908229648  0.07541587215093304          1.0000   
         C         C         1.0       0.9722386349454164  0.7624024846347418  0.073453931357774  1.0000   
         C         C         1.0       0.9495998132564245  0.7638773584192002  0.05260939432031164          1.0000   
         C         C         1.0       0.9359788528138723  0.7432724657487714  0.03519634486915457          1.0000   
         C         C         1.0       0.9473841089603077  0.7208559730307401  0.036227514557999774         1.0000   
         C         C         1.0       0.013511386226262065          0.736713378005171  0.08767151123927053          1.0000   
         C         C         1.0       0.024317379326999473          0.7472097521792085 0.03462511219221098          1.0000   
         C         C         1.0       0.03082280955375784           0.7716336012766375 0.024447747372954298         1.0000   
         C         C         1.0       0.03683362194664402           0.7782178756160739 0.9776787633868108 1.0000   
         C         C         1.0       0.03700609783528366           0.7616966543694784 0.9416279761093089 1.0000   
         C         C         1.0       0.030336411844308638          0.7366338059078845 0.9507431592403877 1.0000   
         C         C         1.0       0.02318852275093191           0.7299865102403393 0.996789262625298  1.0000   
         C         C         1.0       0.005730991790623863          0.7530817915026713 0.1749081754999662 1.0000   
         C         C         1.0       0.015285443610748413          0.7554219690411389 0.22222996075919213          1.0000   
         C         C         1.0       0.04157907160521781           0.7534875499092554 0.23052318367221453          1.0000   
         C         C         1.0       0.05592564454944956           0.7583573058873021 0.18909820953843595          1.0000   
         C         C         1.0       0.046148883650285084          0.7577026859918065 0.14353384622757992          1.0000   
         C         C         1.0       0.021750557308066028          0.7511633553656925 0.13549766507136707          1.0000   
         C         C         1.0       0.052803836121966326          0.7472034775189912 0.28487670099877477          1.0000   
         C         C         1.0       0.06204658192261046           0.8203938711635812 0.353745644525998  1.0000   
         C         C         1.0       0.041038926024087465          0.8069220156998098 0.3616703902331071 1.0000   
         C         C         1.0       0.03587789536412812           0.7839624223784105 0.3363490397988543 1.0000   
         C         C         1.0       0.05357831286102234           0.7749269154556915 0.30368545382419865          1.0000   
         C         C         1.0       0.07367281745471725           0.7907376282695405 0.29123960898063633          1.0000   
         C         C         1.0       0.07680136171673425           0.8123296295083583 0.3159445151374652 1.0000   
         C         C         1.0       0.0792213825449943  0.7339417225954498  0.27977796512440856          1.0000   
         C         C         1.0       0.08393966114933568           0.7156601306348609 0.24566191985198318          1.0000   
         C         C         1.0       0.10661524908008932           0.7051071844990195 0.2376808757797361 1.0000   
         C         C         1.0       0.12725766415403061           0.7162335569976398 0.2622352070460246 1.0000   
         C         C         1.0       0.12245643606408559           0.731909732669956  0.30172784019075755          1.0000   
         C         C         1.0       0.09891872340153186           0.7398379571555403 0.3111124061326373 1.0000   
         C         C         1.0       0.03588977791988681           0.726253746809123  0.36426103725161946          1.0000   
         C         C         1.0       0.021122124367142767          0.7100007222535544 0.3898405825845196 1.0000   
         C         C         1.0       0.006083528971570704          0.6933385118777402 0.3640042339986729 1.0000   
         C         C         1.0       0.011117565381852544          0.6885160288005892 0.3137209258714365 1.0000   
         C         C         1.0       0.02608533121679604           0.7054320821529042 0.28904508008094176          1.0000   
         C         C         1.0       0.03779375248821897           0.7260997471913426 0.31223605275544203          1.0000   
         H         H         1.0       0.9792663325209527  0.6998099361990291  0.0548677045544641 1.0000   
         H         H         1.0       0.9795852886492554  0.7809397498528756  0.08186313871673678          1.0000   
         H         H         1.0       0.9406452768802102  0.7828820303333558  0.04970635792019773          1.0000   
         H         H         1.0       0.9383660506047931  0.7050204071340633  0.020038063237359793         1.0000   
         H         H         1.0       0.030604078553725968          0.785814827422608  0.05408100795563797          1.0000   
         H         H         1.0       0.04286186520327832           0.7962163196199359 0.9670761888617951 1.0000   
         H         H         1.0       0.031870549532362846          0.7243571432736198 0.9207606613689109 1.0000   
         H         H         1.0       0.01804852013016185           0.7105278907002245 0.006566431632958114         1.0000   
         H         H         1.0       0.9864178862058502  0.7495522293885435  0.1713490881440711 1.0000   
         H         H         1.0       0.0034454014928750887         0.7541996225946458 0.2553338001788896 1.0000   
         H         H         1.0       0.07564672965261746           0.7600193768444657 0.19703660719356053          1.0000   
         H         H         1.0       0.05914612484446901           0.7552127602398725 0.11549601222228945          1.0000   
         H         H         1.0       0.031168226885150307          0.8108467148480816 0.3949740745700018 1.0000   
         H         H         1.0       0.018661833877799395          0.7746107596671176 0.3448664347355316 1.0000   
         H         H         1.0       0.08664382962514544           0.7857104370369904 0.261433586530835  1.0000   
         H         H         1.0       0.0943342782641762  0.8226561289862013  0.3090701617118038 1.0000   
         H         H         1.0       0.06816310726931497           0.7094277658857301 0.22426830721112723          1.0000   
         H         H         1.0       0.1085916752168479  0.6920915670856836  0.20930159847893323          1.0000   
         H         H         1.0       0.13746514168414165           0.7376264043984446 0.3280528354543533 1.0000   
         H         H         1.0       0.09630411046487604           0.7550087960957965 0.33754903484380894          1.0000   
         H         H         1.0       0.04460927379534995           0.740549842839443  0.38838860194935676          1.0000   
         H         H         1.0       0.019249673641988287          0.7128361863577831 0.428791893722553  1.0000   
         H         H         1.0       0.000597698031415857          0.6749830760447768 0.28960071525230474          1.0000   
         H         H         1.0       0.029623541142710548          0.7038438516614399 0.2519897180392956 1.0000   
         C         C         1.0       0.0390512329670476  0.38004371519870606           0.007398045723212565         1.0000   
         C         C         1.0       0.06323266576105184           0.3701693113644401 0.016277071193106618         1.0000   
         C         C         1.0       0.08268520725472814           0.3859921171220332 0.02514399227804676          1.0000   
         C         C         1.0       0.0790317110327057  0.41221296190093704           0.021423706923767494         1.0000   
         C         C         1.0       0.054795413045742286          0.42096568153182057          0.01230809721886894          1.0000   
         C         C         1.0       0.03479966449844829           0.4048889319571369 0.009618012048350222         1.0000   
         H         H         1.0       0.06734313427447444           0.35037212235842546          0.010096330793257113         1.0000   
         H         H         1.0       0.10042112049759491           0.3787628832112684 0.02565994191360788          1.0000   
         H         H         1.0       0.050304535902969905          0.4411950660826372 0.009493175325814951         1.0000   
         H         H         1.0       0.01588374206808507           0.4123235685749035 0.007981894371755782         1.0000   
         C         C         1.0       0.11723943523747908           0.41735009211376195          0.9347442384803533 1.0000   
         C         C         1.0       0.10504842702504304           0.43587201317805296          0.9607446872471362 1.0000   
         C         C         1.0       0.09020325201275917           0.45139886291325315          0.9342176392408386 1.0000   
         C         C         1.0       0.08844017915784033           0.4505168417801012 0.8836377983070244 1.0000   
         C         C         1.0       0.10019039403004242           0.432482546337893  0.8584504066556926 1.0000   
         C         C         1.0       0.1147661682981315  0.41552005352266946           0.885110548430144  1.0000   
         C         C         1.0       0.10199027781929422           0.43311318322746295          0.018800116279391155         1.0000   
         C         C         1.0       0.12747040618412958           0.4234109238959357 0.04494012323325958          1.0000   
         C         C         1.0       0.1272733117993192  0.40937140583936993           0.08898144819354448          1.0000   
         C         C         1.0       0.14947952600958606           0.40222461657023145          0.11127085890357802          1.0000   
         C         C         1.0       0.17231762969131229           0.40907131351825277          0.09139905791714131          1.0000   
         C         C         1.0       0.1733579328214723  0.4246648178203652  0.05025292271973103          1.0000   
         C         C         1.0       0.15085047905049034           0.43199133163308284          0.029866974594695117         1.0000   
         C         C         1.0       0.10692855080335895           0.4802996754512244 0.04290639650383188          1.0000   
         C         C         1.0       0.10330825894596392           0.5017432883611403 0.07020020930529813          1.0000   
         C         C         1.0       0.08984518329143287           0.49965458746280206          0.11299754052598412          1.0000   
         C         C         1.0       0.07739963514174929           0.47741348256633476          0.12180641877291332          1.0000   
         C         C         1.0       0.08185837667172423           0.45669117688022914          0.09300881851294639          1.0000   
         C         C         1.0       0.09607339466244222           0.45834672836408796          0.05089692201454035          1.0000   
         C         C         1.0       0.08957414143766683           0.5219927495994514 0.1551598495692183 1.0000   
         C         C         1.0       0.08579804512771765           0.5996297165236762 0.1132477126345614 1.0000   
         C         C         1.0       0.07668974082647702           0.5814708085036794 0.08048657691901166          1.0000   
         C         C         1.0       0.08081478814659396           0.556987722651268  0.09162808316115084          1.0000   
         C         C         1.0       0.09388114966370659           0.549254202583003  0.13442538115548167          1.0000   
         C         C         1.0       0.1054743356998737  0.5679340031544419  0.16241940982101288          1.0000   
         C         C         1.0       0.1023392122501862  0.5931407038002168  0.1507998126061978 1.0000   
         C         C         1.0       0.11141544223458295           0.5095862973078568 0.19042864951142527          1.0000   
         C         C         1.0       0.10662257621953691           0.4924220626818037 0.2270003074843414 1.0000   
         C         C         1.0       0.12513439103523513           0.4796197930755329 0.24913562670054143          1.0000   
         C         C         1.0       0.14784038122297655           0.4809617565873487 0.22966270197800884          1.0000   
         C         C         1.0       0.1544352979251706  0.49943959125273796           0.1954056736952822 1.0000   
         C         C         1.0       0.13535794147667057           0.5133184846824244 0.17478781215919803          1.0000   
         C         C         1.0       0.06568839033108961           0.5351751234019594 0.2351072304550916 1.0000   
         C         C         1.0       0.04463220324484506           0.535502950974606  0.26118903264611854          1.0000   
         C         C         1.0       0.02172372859073759           0.5295822380208492 0.24200202172328347          1.0000   
         C         C         1.0       0.020063361721090973          0.5252923929942948 0.1909709829998364 1.0000   
         C         C         1.0       0.04123530699276055           0.523299030359639  0.16557615569015982          1.0000   
         C         C         1.0       0.06518785124705485           0.5263803472627026 0.1872391147608401 1.0000   
         H         H         1.0       0.1256124285123236  0.4007705432777149  0.9520852616510092 1.0000   
         H         H         1.0       0.0796268404974845  0.4662914886280939  0.9516183640994437 1.0000   
         H         H         1.0       0.07324392782060832           0.4609269190856254 0.8652660134732744 1.0000   
         H         H         1.0       0.12138528234925267           0.3986750631031548 0.8655999009358587 1.0000   
         H         H         1.0       0.11030156768581954           0.4048329835753133 0.10594907913224039          1.0000   
         H         H         1.0       0.14795036608935355           0.38936409337580974          0.1414639201741641 1.0000   
         H         H         1.0       0.19198302076077323           0.4306699722211454 0.035648400009849146         1.0000   
         H         H         1.0       0.15125402087377965           0.44383986361643774          0.9985775812910967 1.0000   
         H         H         1.0       0.1187735694389345  0.4818737124487562  0.011339967488807945         1.0000   
         H         H         1.0       0.11335466391464656           0.5177685446150506 0.057543459142831446         1.0000   
         H         H         1.0       0.0660440766650641  0.4760581253952709  0.154387931187565  1.0000   
         H         H         1.0       0.07481982005323412           0.43887134693766244          0.10575806004443176          1.0000   
         H         H         1.0       0.06519871938088796           0.5858714099149986 0.04717519739339959          1.0000   
         H         H         1.0       0.07365031132990302           0.5429019242114148 0.06826787468502601          1.0000   
         H         H         1.0       0.11648558281727275           0.5617465542652466 0.1955087671634509 1.0000   
         H         H         1.0       0.11236852532120462           0.6091047117454054 0.16552230443429483          1.0000   
         H         H         1.0       0.08774711209880501           0.48808023808664674          0.2376215251376048 1.0000   
         H         H         1.0       0.11956453924337808           0.46715313732461117          0.275593461142054  1.0000   
         H         H         1.0       0.17368092386417577           0.49860750146456184          0.18393036972383853          1.0000   
         H         H         1.0       0.13831808958309808           0.5255165932088653 0.14129103577568333          1.0000   
         H         H         1.0       0.08372376112573673           0.537393846852366  0.2509902026300104 1.0000   
         H         H         1.0       0.04656448256324229           0.5421406785398406 0.2979615780663519 1.0000   
         H         H         1.0       0.0024744755078752075         0.5166751263821507 0.18074380829723385          1.0000   
         H         H         1.0       0.040768606078960885          0.5155260383422738 0.12891376481852182          1.0000   
         C         C         1.0       0.8522583247358017  0.9109768587644853  0.9876716167729207 1.0000   
         C         C         1.0       0.875594798679761   0.9169536523579608  0.005787605316890598         1.0000   
         C         C         1.0       0.8952853695921121  0.8992532897111264  0.0032578329678636386        1.0000   
         C         C         1.0       0.8929900395515887  0.8793676864321208  0.9703898822909044 1.0000   
         C         C         1.0       0.869345572332261   0.8750543166025304  0.9482611956481726 1.0000   
         C         C         1.0       0.8494142619584903  0.8904853007481599  0.9579913384729618 1.0000   
         H         H         1.0       0.8766472965932147  0.9323477100964329  0.03126329057982158          1.0000   
         H         H         1.0       0.9135896921509279  0.9029830300016863  0.019970127691000705         1.0000   
         H         H         1.0       0.8665400976549746  0.8603977480406678  0.9203299555475349 1.0000   
         H         H         1.0       0.8328983158172754  0.8896532925623696  0.9378245332552596 1.0000   
         C         C         1.0       0.8949662201861078  0.8217813900525037  0.9791446311904971 1.0000   
         C         C         1.0       0.9113645927479641  0.83334651564124    0.9478502742102198 1.0000   
         C         C         1.0       0.92552347717852    0.818192185258303   0.9169689403841172 1.0000   
         C         C         1.0       0.9224743884484701  0.7925055361745894  0.9140519091449346 1.0000   
         C         C         1.0       0.9071458721768739  0.7809194542375554  0.9511373835696725 1.0000   
         C         C         1.0       0.8927115546952815  0.7958004437090317  0.9815618887255251 1.0000   
         C         C         1.0       0.9158873728536239  0.8628295267380659  0.9531925216265724 1.0000   
         C         C         1.0       0.9391909499144792  0.859266133867765   0.9916837136434824 1.0000   
         C         C         1.0       0.9630714979873591  0.854026204354126   0.9755039219029601 1.0000   
         C         C         1.0       0.9822959014724334  0.8469550935125272  0.007380122766838415         1.0000   
         C         C         1.0       0.9772001647615575  0.8456392781196257  0.05805082349318336          1.0000   
         C         C         1.0       0.9535428163302366  0.8496669999848074  0.07417539373138538          1.0000   
         C         C         1.0       0.935145505400982   0.8579006281660537  0.041262771540027776         1.0000   
         C         C         1.0       0.9124331711158611  0.8729464260784299  0.8604620792700035 1.0000   
         C         C         1.0       0.9173310329595847  0.8869889723182026  0.8190821335335317 1.0000   
         C         C         1.0       0.9349182177767934  0.9058973804613638  0.8202506239635651 1.0000   
         C         C         1.0       0.9468706182207353  0.9107614991236003  0.8649922868958009 1.0000   
         C         C         1.0       0.9396588334353857  0.897659449280325   0.9061506178230614 1.0000   
         C         C         1.0       0.9234078583447561  0.8780585695463377  0.9039955293415284 1.0000   
         C         C         1.0       0.9435729543745036  0.9175148035851401  0.7701000578968751 1.0000   
         C         C         1.0       0.9974992001903396  0.8570959345566441  0.7526228381419019 1.0000   
         C         C         1.0       0.9741428768863079  0.8561263381110426  0.7290060753391745 1.0000   
         C         C         1.0       0.9586189966342172  0.8764527675885775  0.7302819999722154 1.0000   
         C         C         1.0       0.9648279855616472  0.8975739701940473  0.7569120034221657 1.0000   
         C         C         1.0       0.9883620202209267  0.8985795683606359  0.7805064111592546 1.0000   
         C         C         1.0       0.004334094291596369          0.8796372564768076 0.7747726335418965 1.0000   
         C         C         1.0       0.9526577941698263  0.9456227675184261  0.7744344928621024 1.0000   
         C         C         1.0       0.9431782095454666  0.9643986722131584  0.8038292414262407 1.0000   
         C         C         1.0       0.9490945409751396  0.9889932012913746  0.7969899208994088 1.0000   
         C         C         1.0       0.9640124486933772  0.9964122778033117  0.7593179874580347 1.0000   
         C         C         1.0       0.9740868956133049  0.9779128358527822  0.7301396891649904 1.0000   
         C         C         1.0       0.9695729308934131  0.9530256389874739  0.7390842957986766 1.0000   
         C         C         1.0       0.9268282232950222  0.9192129576509567  0.6799268434429756 1.0000   
         C         C         1.0       0.9092869874614962  0.9278336094966764  0.6453975771369579 1.0000   
         C         C         1.0       0.8869553634135525  0.9384049762528905  0.6595950576005178 1.0000   
         C         C         1.0       0.8806912695765273  0.9386172771335302  0.7084589234152502 1.0000   
         C         C         1.0       0.8981821183299699  0.9308440516546514  0.7422165667642286 1.0000   
         C         C         1.0       0.9224014363601379  0.921667063530775   0.7296693455968228 1.0000   
         H         H         1.0       0.8824118368016737  0.8329492627719665  0.003343017729997122         1.0000   
         H         H         1.0       0.938409953855882   0.8267862521610867  0.8908840484971966 1.0000   
         H         H         1.0       0.9326409613173614  0.7811524568704991  0.8881087817452411 1.0000   
         H         H         1.0       0.8788408063066777  0.7875715148381868  0.005863964176568315         1.0000   
         H         H         1.0       0.966506704076266   0.855804646993172   0.9370494114418801 1.0000   
         H         H         1.0       0.9996957478930006  0.8424601641886338  0.990725868182824  1.0000   
         H         H         1.0       0.9463191672596486  0.8425478770782829  0.10832076383096223          1.0000   
         H         H         1.0       0.9160296287507531  0.8581697235004713  0.05188964252767758          1.0000   
         H         H         1.0       0.8984973829299552  0.8592902226930257  0.8604946305654009 1.0000   
         H         H         1.0       0.9062594144659162  0.8817995207722524  0.7881856356164174 1.0000   
         H         H         1.0       0.9606462684114399  0.9249339179381332  0.874571422829567  1.0000   
         H         H         1.0       0.9502623929653586  0.9003057360048173  0.9399370913992507 1.0000   
         H         H         1.0       0.9688976372550427  0.839946187627132   0.7080172142329064 1.0000   
         H         H         1.0       0.9402559893725022  0.8724423201746281  0.7128276581317233 1.0000   
         H         H         1.0       0.9947998979751412  0.9157684291360654  0.797282435746988  1.0000   
         H         H         1.0       0.023203252070606917          0.8788945323985039 0.7886799739933734 1.0000   
         H         H         1.0       0.930058278238723   0.9590161189619493  0.8302742766282202 1.0000   
         H         H         1.0       0.9406616317751131  0.002823064889239113         0.8223217897955041 1.0000   
         H         H         1.0       0.9835343057672878  0.9826795871670325  0.696988460419868  1.0000   
         H         H         1.0       0.9778474495081073  0.9400862867175441  0.7117314499577583 1.0000   
         H         H         1.0       0.9443728973831865  0.9124237171105994  0.6644995701540456 1.0000   
         H         H         1.0       0.9138553606083343  0.927809239135709   0.6057653614094016 1.0000   
         H         H         1.0       0.8631356605579361  0.9481634648995965  0.7214894439218309 1.0000   
         H         H         1.0       0.8903953381467975  0.9311494603378411  0.7792715381012433 1.0000   
         C         C         1.0       0.5921621495262458  0.8291809684363517  0.8453965247932811 1.0000   
         C         C         1.0       0.5839833087194429  0.8536528858164593  0.8474312623555904 1.0000   
         C         C         1.0       0.5953029808648421  0.8701402324093988  0.8791528913374307 1.0000   
         C         C         1.0       0.6164748434814873  0.8639756414842096  0.9068415260450531 1.0000   
         C         C         1.0       0.6243363360031737  0.8383270877582596  0.9061099939553027 1.0000   
         C         C         1.0       0.6123465425619304  0.8218128174081027  0.874525913581219  1.0000   
         H         H         1.0       0.5678130845659453  0.8606729188147966  0.8259466012035598 1.0000   
         H         H         1.0       0.5859995424481325  0.8880733832272115  0.8818836703600531 1.0000   
         H         H         1.0       0.6421398253225191  0.8322687496405421  0.9258335983119337 1.0000   
         H         H         1.0       0.6177546998344027  0.8022383709370422  0.8766914372219221 1.0000   
         C         C         1.0       0.610042319573267   0.87946325216501    0.017573044957055695         1.0000   
         C         C         1.0       0.6320881809201553  0.8753398166650942  0.9914201788011352 1.0000   
         C         C         1.0       0.6511975820496558  0.8609418200840485  0.016560693482858824         1.0000   
         C         C         1.0       0.6485162119381598  0.8536841347863758  0.06478371210295575          1.0000   
         C         C         1.0       0.6268067607331853  0.8604694975589424  0.08937790788336225          1.0000   
         C         C         1.0       0.6085898001030347  0.8749275845020216  0.06592569716668528          1.0000   
         C         C         1.0       0.6329957756677669  0.8843558809269564  0.9349532470596437 1.0000   
         C         C         1.0       0.6254357113914413  0.9131718503696354  0.924962278196229  1.0000   
         C         C         1.0       0.6237159994016139  0.9238787129217227  0.8783873231992768 1.0000   
         C         C         1.0       0.6181730391915431  0.9486461351753418  0.8722236979068628 1.0000   
         C         C         1.0       0.6138638788858336  0.9642554249590468  0.9140197348003806 1.0000   
         C         C         1.0       0.6157428318412154  0.9538952018173191  0.9604407391515516 1.0000   
         C         C         1.0       0.623636331691249   0.928333739543635   0.9654617280154529 1.0000   
         C         C         1.0       0.6792190796286945  0.8976608901335906  0.9369675815623899 1.0000   
         C         C         1.0       0.7022680671430639  0.9031082838214395  0.9163310991401626 1.0000   
         C         C         1.0       0.7087663628922017  0.8936336904564869  0.8710064512574767 1.0000   
         C         C         1.0       0.6907983654861206  0.8778759425756137  0.8473913278082801 1.0000   
         C         C         1.0       0.6674156375129804  0.8733441112613558  0.866584789960747  1.0000   
         C         C         1.0       0.6612446713865694  0.8842628766500601  0.9113268671406257 1.0000   
         C         C         1.0       0.7302909990362373  0.9053207260555965  0.8396315296452064 1.0000   
         C         C         1.0       0.7950662171186087  0.933861356494078   0.9255060622980074 1.0000   
         C         C         1.0       0.7854407513928486  0.9479629075305211  0.8859914225777831 1.0000   
         C         C         1.0       0.7638439695866981  0.9402921544328373  0.859901474965634  1.0000   
         C         C         1.0       0.7526567026662152  0.9177337712059418  0.8708403607125735 1.0000   
         C         C         1.0       0.7624181391635454  0.903564218716201   0.9098276681153372 1.0000   
         C         C         1.0       0.7837923233597284  0.9122607443470192  0.9351867796280741 1.0000   
         C         C         1.0       0.714694965401506   0.9258278990200728  0.8063669403469162 1.0000   
         C         C         1.0       0.7060008348164668  0.9205813649677507  0.7580169910153437 1.0000   
         C         C         1.0       0.6881597323898916  0.9351764710560806  0.7347462292357053 1.0000   
         C         C         1.0       0.6758944919286516  0.9537862444435748  0.759916763718437  1.0000   
         C         C         1.0       0.6857000130625964  0.9620362522161202  0.8043720925354597 1.0000   
         C         C         1.0       0.7040173260121387  0.9477038674831383  0.8280675541722408 1.0000   
         C         C         1.0       0.7552446232352817  0.8934728002929765  0.7609502444387448 1.0000   
         C         C         1.0       0.765905360222567   0.8776145173902801  0.7276152286863482 1.0000   
         C         C         1.0       0.7647082282008552  0.8524178974675531  0.7328578923735972 1.0000   
         C         C         1.0       0.7569278335220984  0.8434703198665506  0.778895826361645  1.0000   
         C         C         1.0       0.7468093311573533  0.8596069207594822  0.813459436236901  1.0000   
         C         C         1.0       0.7445947695181938  0.8854516144600105  0.8041584628987771 1.0000   
         H         H         1.0       0.5942699001176529  0.8898111041250184  0.00240433828042641          1.0000   
         H         H         1.0       0.6672541174103985  0.8536817856284712  0.9969335033231118 1.0000   
         H         H         1.0       0.6632321526671588  0.8405831654512256  0.08148366611840831          1.0000   
         H         H         1.0       0.5919106440262443  0.8830319904601875  0.08370196420939016          1.0000   
         H         H         1.0       0.6254508385421561  0.9121854707682773  0.8474961150647295 1.0000   
         H         H         1.0       0.6163639411076     0.9571149022900561  0.8346894197838651 1.0000   
         H         H         1.0       0.6108102839945019  0.9626896876755493  0.9942737436416534 1.0000   
         H         H         1.0       0.6239658359885072  0.9227381068401322  0.0042772070957493025        1.0000   
         H         H         1.0       0.6748611683351008  0.9081536860670045  0.9721603789236987 1.0000   
         H         H         1.0       0.7149988657619885  0.9169390105091839  0.933371913687712  1.0000   
         H         H         1.0       0.6953959314087506  0.8706048144262999  0.810786291852914  1.0000   
         H         H         1.0       0.6511387188448472  0.8667820334907964  0.8448459194155943 1.0000   
         H         H         1.0       0.7945350334140697  0.9638987014448538  0.8723924973207343 1.0000   
         H         H         1.0       0.7566195586197982  0.9510830079598127  0.8289557441281007 1.0000   
         H         H         1.0       0.7551339471283802  0.8864247132592042  0.9244781222924122 1.0000   
         H         H         1.0       0.7886925896325885  0.9017396645486672  0.968313152103103  1.0000   
         H         H         1.0       0.7091297190627307  0.9028934530346148  0.7391525261960834 1.0000   
         H         H         1.0       0.6788305492997844  0.9273032640328587  0.7016240460878288 1.0000   
         H         H         1.0       0.6751565706050952  0.9766130490524763  0.8217306485673752 1.0000   
         H         H         1.0       0.7076668564483701  0.9539359154542798  0.8666170061331314 1.0000   
         H         H         1.0       0.7565676462010441  0.9129619444096787  0.7549039762539624 1.0000   
         H         H         1.0       0.7698332289677092  0.886519088901401   0.6936539151302857 1.0000   
         H         H         1.0       0.7584094566783942  0.823790468266006   0.7867210241543604 1.0000   
         H         H         1.0       0.7420908817877623  0.8526998515083085  0.8520908779257518 1.0000   
         C         C         1.0       0.5115448112373481  0.08336258774850812           0.6829200054425438 1.0000   
         C         C         1.0       0.5288980552405819  0.0779434001514395  0.6477555650920709 1.0000   
         C         C         1.0       0.5282124778917321  0.09119427936418442           0.6032786830885613 1.0000   
         C         C         1.0       0.509163594178287   0.10852701594252993           0.5946384322053158 1.0000   
         C         C         1.0       0.49123455314799175           0.11298874319349535          0.6310166265778415 1.0000   
         C         C         1.0       0.49256604345975    0.1006111146356757  0.6750726200398661 1.0000   
         H         H         1.0       0.5427908492081929  0.06410415211984999           0.6560790229401396 1.0000   
         H         H         1.0       0.5416738077853616  0.08572484854719788           0.5767421994324654 1.0000   
         H         H         1.0       0.4781351342025449  0.12714106685533605           0.6242289312862486 1.0000   
         H         H         1.0       0.4792023493506583  0.10441901711517806           0.7043109415052361 1.0000   
         C         C         1.0       0.4616536081147997  0.11975618022128935           0.5285227236905365 1.0000   
         C         C         1.0       0.4828531287596522  0.13382047384427567           0.5210995432409273 1.0000   
         C         C         1.0       0.4792139343979742  0.15620734052528476           0.49202820963570765          1.0000   
         C         C         1.0       0.45574499026836407           0.16346659326743096          0.47811078707266014          1.0000   
         C         C         1.0       0.4355036712221361  0.14776827678235482           0.4824898402478595 1.0000   
         C         C         1.0       0.4383227082583997  0.1266890801888418  0.5100821931739189 1.0000   
         C         C         1.0       0.5093713529231402  0.12478362076950958           0.5437251794917491 1.0000   
         C         C         1.0       0.5194759938175412  0.11200537403531384           0.49559818316771365          1.0000   
         C         C         1.0       0.5334654765220028  0.1269181299082519  0.4632939817892744 1.0000   
         C         C         1.0       0.5397306455488384  0.1175695633338267  0.4167905805807234 1.0000   
         C         C         1.0       0.5280124498946661  0.0970098647301256  0.39848923957175664          1.0000   
         C         C         1.0       0.5143972379201758  0.08255447176971735           0.430546988079589  1.0000   
         C         C         1.0       0.5113135135772527  0.08821725524664915           0.47997773829027196          1.0000   
         C         C         1.0       0.5151710705110829  0.17013156020873238           0.584783779188256  1.0000   
         C         C         1.0       0.5300051421714825  0.18771416868965257           0.6065650224795859 1.0000   
         C         C         1.0       0.5559119269981938  0.18433668397522973           0.6083416278765156 1.0000   
         C         C         1.0       0.5659670188098231  0.16117544902437042           0.5965551934111372 1.0000   
         C         C         1.0       0.551267858965192   0.14410964343289756           0.5712960196572834 1.0000   
         C         C         1.0       0.5256974485831792  0.14771645322155114           0.5667622377514419 1.0000   
         C         C         1.0       0.5733525220796126  0.20563563354062242           0.629752661888436  1.0000   
         C         C         1.0       0.5679793598199618  0.2813980377671037  0.5640433571346101 1.0000   
         C         C         1.0       0.5557038247664277  0.26092572837904604           0.542453034820125  1.0000   
         C         C         1.0       0.5556148107486776  0.23763932842018223           0.560938707179922  1.0000   
         C         C         1.0       0.5675296727843863  0.23372262875764033           0.6056116519945715 1.0000   
         C         C         1.0       0.5820896030245317  0.2527427926970745  0.6257656733344767 1.0000   
         C         C         1.0       0.5811018305887464  0.27642577422977027           0.6067523139175377 1.0000   
         C         C         1.0       0.6020224348331498  0.2012583341170121  0.612258589927747  1.0000   
         C         C         1.0       0.6073660469438509  0.20139130309672448           0.5630234902507291 1.0000   
         C         C         1.0       0.6326745476079763  0.20168615187027275           0.5465360473643934 1.0000   
         C         C         1.0       0.651823750949136   0.20085903032571403           0.577400786669387  1.0000   
         C         C         1.0       0.6467863262851102  0.20088828346645654           0.6272401676426206 1.0000   
         C         C         1.0       0.6226119537932785  0.20220946555705577           0.6446075978793725 1.0000   
         C         C         1.0       0.5561137746984136  0.22069059407865027           0.713838346326781  1.0000   
         C         C         1.0       0.5535556813365687  0.21958936510130858           0.7657340548130697 1.0000   
         C         C         1.0       0.56290480115002    0.19913294756858438           0.7894216846439471 1.0000   
         C         C         1.0       0.5717012256088095  0.1790512689414662  0.7623886067694606 1.0000   
         C         C         1.0       0.5756498392895123  0.18134127159879634           0.7124946823168437 1.0000   
         C         C         1.0       0.5687065983864372  0.202591753668532   0.6868674309240548 1.0000   
         H         H         1.0       0.4610944839556411  0.10383932421410894           0.5565193012559333 1.0000   
         H         H         1.0       0.49450167138168133           0.16807857356928538          0.4850375472430099 1.0000   
         H         H         1.0       0.4552869680157044  0.18188667910949227           0.4593404661327871 1.0000   
         H         H         1.0       0.42146264652950916           0.11704733178960734          0.5193364066243075 1.0000   
         H         H         1.0       0.5391520533065173  0.1455318027879192  0.47248711440777946          1.0000   
         H         H         1.0       0.5527157552783508  0.12987749228953727           0.3959124604041456 1.0000   
         H         H         1.0       0.506099012581212   0.06556188683928754           0.4201596204708143 1.0000   
         H         H         1.0       0.49868134474976383           0.07607884518759297          0.5018116922974996 1.0000   
         H         H         1.0       0.49453654344901776           0.1725037371386749 0.5850416477584094 1.0000   
         H         H         1.0       0.5228742274442167  0.205141364775495   0.617134306376967  1.0000   
         H         H         1.0       0.584529457332983   0.15615786939019694           0.6033931841148976 1.0000   
         H         H         1.0       0.5586986661887546  0.12638622266758834           0.5630238789544473 1.0000   
         H         H         1.0       0.5439001443643565  0.2637138220711956  0.5093623393757408 1.0000   
         H         H         1.0       0.5477770986326411  0.22337862899591623           0.5383760297203838 1.0000   
         H         H         1.0       0.5956939407975932  0.2511442165672169  0.6534484141169677 1.0000   
         H         H         1.0       0.5933054965406371  0.2914805666107367  0.6233433526690458 1.0000   
         H         H         1.0       0.5924675075469217  0.20401534821076606           0.5365028247054252 1.0000   
         H         H         1.0       0.6347660132128594  0.20349426775783136           0.508693951680057  1.0000   
         H         H         1.0       0.6617400884430045  0.20167909308212942           0.6535583489357168 1.0000   
         H         H         1.0       0.6189003957346638  0.2046158545388067  0.6832690988954528 1.0000   
         H         H         1.0       0.5502590820557365  0.2377089443267332  0.6945276212791794 1.0000   
         H         H         1.0       0.546113776089193   0.2358364214959071  0.7853710175723922 1.0000   
         H         H         1.0       0.5766939957827446  0.16108531705097934           0.779373069727201  1.0000   
         H         H         1.0       0.5873609690887373  0.1675977649639059  0.6916254336887185 1.0000   
         C         C         1.0       0.5437620608924636  0.8452370712106423  0.3977628130792975 1.0000   
         C         C         1.0       0.551173399932433   0.8675247323887093  0.3745650271723823 1.0000   
         C         C         1.0       0.5510383256071893  0.8905983801174918  0.39790149624830673          1.0000   
         C         C         1.0       0.5444852459104533  0.8916078636142686  0.4486218581191357 1.0000   
         C         C         1.0       0.5392739159468191  0.8690643659508346  0.4706977186770503 1.0000   
         C         C         1.0       0.5387308982504287  0.8467951939517803  0.44651048032006274          1.0000   
         H         H         1.0       0.5540804811648966  0.8676528255122629  0.3359906362475937 1.0000   
         H         H         1.0       0.5531924049035551  0.9082579266395143  0.37718418770937673          1.0000   
         H         H         1.0       0.5308492987355629  0.8683127851633009  0.5066781005391442 1.0000   
         H         H         1.0       0.531598461467706   0.8296922401978778  0.4652462310766561 1.0000   
         C         C         1.0       0.4944265009554011  0.9154015750291901  0.4424131745152331 1.0000   
         C         C         1.0       0.517557816047717   0.9282852099886632  0.43869112482084244          1.0000   
         C         C         1.0       0.5180708143295356  0.9494470789540235  0.4082446894336641 1.0000   
         C         C         1.0       0.49679491920086616           0.9607414220186234 0.39102598314318937          1.0000   
         C         C         1.0       0.4742046497457198  0.9499102609395171  0.40271278020532786          1.0000   
         C         C         1.0       0.47322957317238273           0.9258403930860234 0.42236417425898004          1.0000   
         C         C         1.0       0.5416920895634525  0.9191074044824898  0.47106321505108617          1.0000   
         C         C         1.0       0.5671735110433476  0.934870638827302   0.4677740794513457 1.0000   
         C         C         1.0       0.5670849443556784  0.9604781814874416  0.4782602932434649 1.0000   
         C         C         1.0       0.5891021088133028  0.9734602882872064  0.4930635719408381 1.0000   
         C         C         1.0       0.6111506924074366  0.9607351401323585  0.4919896942902731 1.0000   
         C         C         1.0       0.6117675651557807  0.9354376143763217  0.47751762689673594          1.0000   
         C         C         1.0       0.5907374558803713  0.9228128035391681  0.46445419868859694          1.0000   
         C         C         1.0       0.5164776893831411  0.9402503749308786  0.5420564563652223 1.0000   
         C         C         1.0       0.5108909895205299  0.941803147623851   0.59101516216385   1.0000   
         C         C         1.0       0.5254704249856414  0.9304131850405637  0.6272495995906794 1.0000   
         C         C         1.0       0.541289329323226   0.9116338455741444  0.6110371049395329 1.0000   
         C         C         1.0       0.5469524070216488  0.9088751985379477  0.561907559614995  1.0000   
         C         C         1.0       0.5342228774695023  0.9220658723509474  0.5254068973572406 1.0000   
         C         C         1.0       0.5258893493095218  0.9421663555202503  0.6803090456235772 1.0000   
         C         C         1.0       0.5043123593489863  0.01961805511357162           0.7178978675007079 1.0000   
         C         C         1.0       0.5065488367216808  0.0020632530253308357        0.7535353738293797 1.0000   
         C         C         1.0       0.5165614576200205  0.9778941923922666  0.7416493304375148 1.0000   
         C         C         1.0       0.5204228252695308  0.9714420724172046  0.6914475333571538 1.0000   
         C         C         1.0       0.5199153055285815  0.9906605632347535  0.6579753179739998 1.0000   
         C         C         1.0       0.5121358823956637  0.014193329053883819         0.6709653348012778 1.0000   
         C         C         1.0       0.5546564059588168  0.9423506527548026  0.7008949821874562 1.0000   
         C         C         1.0       0.5608081869135452  0.933478151268838   0.7477342717031783 1.0000   
         C         C         1.0       0.5850913608553693  0.9319930384845904  0.7617738430360322 1.0000   
         C         C         1.0       0.6034138001338638  0.9426296050745983  0.7319547588124009 1.0000   
         C         C         1.0       0.5961079243467051  0.9553467861366276  0.6894962712259971 1.0000   
         C         C         1.0       0.572194877425845   0.952631137408156   0.673069924400984  1.0000   
         C         C         1.0       0.5146961817801309  0.8968924390827221  0.7177381814884075 1.0000   
         C         C         1.0       0.4977603602702275  0.8836110238442682  0.7437649861432022 1.0000   
         C         C         1.0       0.47307541049736523           0.8917824091270542 0.7475993510512464 1.0000   
         C         C         1.0       0.466025452968698   0.914217116152111   0.7266225153761617 1.0000   
         C         C         1.0       0.4827804690175181  0.929242102490748   0.7051712571648785 1.0000   
         C         C         1.0       0.5077543431095809  0.9215031967852195  0.7018786760890416 1.0000   
         H         H         1.0       0.49452283199507685           0.896146208169238  0.4618263573570295 1.0000   
         H         H         1.0       0.5356266645638176  0.9567197813497216  0.394852230559198  1.0000   
         H         H         1.0       0.4977077342393482  0.9794016696599298  0.3739346888127903 1.0000   
         H         H         1.0       0.4572917964849515  0.9165824948383731  0.43186618510474234          1.0000   
         H         H         1.0       0.5496056508039108  0.9714245823412205  0.48399767495846685          1.0000   
         H         H         1.0       0.5874578393632791  0.9931140093827634  0.5034792381408081 1.0000   
         H         H         1.0       0.628883626747636   0.9255255893456259  0.4808440133689133 1.0000   
         H         H         1.0       0.59273598935791    0.9022932238625448  0.46050310330645133          1.0000   
         H         H         1.0       0.5068059939138807  0.954797465993868   0.520415335245626  1.0000   
         H         H         1.0       0.49573419332511887           0.9552582838979493 0.598793558317517  1.0000   
         H         H         1.0       0.5541369342617697  0.9016856265631368  0.6356806199317867 1.0000   
         H         H         1.0       0.5629226841627267  0.8973728499492637  0.5508932977246104 1.0000   
         H         H         1.0       0.5048617813992425  0.006725816514196348         0.7912886704605591 1.0000   
         H         H         1.0       0.5180323739533099  0.9632222180075469  0.7677846294991996 1.0000   
         H         H         1.0       0.5270283112686793  0.9876570220742229  0.6194677121653203 1.0000   
         H         H         1.0       0.5122596419852293  0.027943354212322635         0.6429322357634676 1.0000   
         H         H         1.0       0.5437510629638374  0.9274177243483647  0.7703464003453055 1.0000   
         H         H         1.0       0.589700771614575   0.9209764824628889  0.7927220715820572 1.0000   
         H         H         1.0       0.6093053462522454  0.9669441065172616  0.6685061410110945 1.0000   
         H         H         1.0       0.5670454424133573  0.960799400330285   0.6379321566618525 1.0000   
         H         H         1.0       0.5344554868682203  0.8906569833935212  0.7120017034605951 1.0000   
         H         H         1.0       0.5037411406000953  0.8668761955587997  0.7614619034354179 1.0000   
         H         H         1.0       0.44704331955911786           0.9221496491386175 0.731929238499451  1.0000   
         H         H         1.0       0.47686257494409456           0.947439780070448  0.6950237084651706 1.0000   
         C         C         1.0       0.09164719725212297           0.3471415994409211 0.5909069717902279 1.0000   
         C         C         1.0       0.11119552614750959           0.36147356831623106          0.6116108886236328 1.0000   
         C         C         1.0       0.13434301080004668           0.36218416149894517          0.5897546887462684 1.0000   
         C         C         1.0       0.13826098290545918           0.3512637028409059 0.5432515041976058 1.0000   
         C         C         1.0       0.11876000545799813           0.3379677606823796 0.5202626685270806 1.0000   
         C         C         1.0       0.09676925436026212           0.33385799016819306          0.5463158448026711 1.0000   
         H         H         1.0       0.11059423853829778           0.36896090586884267          0.6474737142213356 1.0000   
         H         H         1.0       0.14898741740884253           0.37114529197067825          0.6094957287961963 1.0000   
         H         H         1.0       0.11867523468428338           0.3303362836397492 0.48513519425771673          1.0000   
         H         H         1.0       0.08289114096305397           0.322557975454053  0.5290211649786333 1.0000   
         C         C         1.0       0.17738453453832478           0.3125966655045462 0.5565169608381455 1.0000   
         C         C         1.0       0.18147719086421113           0.33846632018448913          0.5567343939087184 1.0000   
         C         C         1.0       0.19388848580030127           0.3495072020807249 0.5954761025991289 1.0000   
         C         C         1.0       0.20675717681917433           0.3355247711197482 0.629666085623806  1.0000   
         C         C         1.0       0.20511091760319508           0.30958684202257897          0.6260196346410543 1.0000   
         C         C         1.0       0.19070189583372715           0.2979045608840559 0.5892825764448357 1.0000   
         C         C         1.0       0.16554284839330316           0.3552433306849712 0.5173467027236593 1.0000   
         C         C         1.0       0.17177823207020118           0.3845059697198468 0.51349452130893   1.0000   
         C         C         1.0       0.195237216647028   0.39315867680136746           0.4945816381335036 1.0000   
         C         C         1.0       0.1983646448162366  0.416858311393635   0.4810552121607419 1.0000   
         C         C         1.0       0.1790604875982311  0.43403055719441935           0.48386080465452813          1.0000   
         C         C         1.0       0.15637537127909737           0.4266300548611581 0.5014824000199487 1.0000   
         C         C         1.0       0.15270008347476186           0.4022619564691863 0.5161398406671911 1.0000   
         C         C         1.0       0.18925254420029342           0.33363738919988467          0.44520293334368893          1.0000   
         C         C         1.0       0.19043844280682448           0.3271570714277976 0.3956714006565662 1.0000   
         C         C         1.0       0.1758261927041589  0.3376698336550666  0.36071770612874926          1.0000   
         C         C         1.0       0.15369141754242235           0.34894124241254276          0.3778231662834068 1.0000   
         C         C         1.0       0.1512677490411397  0.35466376279625733           0.427533860079975  1.0000   
         C         C         1.0       0.16844395238603402           0.34648103142116843          0.4623048483801164 1.0000   
         C         C         1.0       0.18033335380318039           0.3345196000752041 0.3034536040631474 1.0000   
         C         C         1.0       0.25327026320177237           0.3143717469617623 0.2416113950291331 1.0000   
         C         C         1.0       0.23187994775551216           0.3083221749928585 0.21551928465578704          1.0000   
         C         C         1.0       0.21025663491404462           0.313927424664646  0.23504142851237805          1.0000   
         C         C         1.0       0.20706168703371927           0.32592654682346256          0.28082894419645743          1.0000   
         C         C         1.0       0.22911474024914147           0.3299254026612477 0.30627719803717723          1.0000   
         C         C         1.0       0.2516614451402787  0.32475438487100744           0.288686188773641  1.0000   
         C         C         1.0       0.17680990281698744           0.3615530361703695 0.27810200905507365          1.0000   
         C         C         1.0       0.15292214643410518           0.3701317753828852 0.26577796382562985          1.0000   
         C         C         1.0       0.1479374533932609  0.3934260685414377  0.24629067829379098          1.0000   
         C         C         1.0       0.16627784415038932           0.41227942933567585          0.2471471674486577 1.0000   
         C         C         1.0       0.18972079188048635           0.4056949998217234 0.2641394676751413 1.0000   
         C         C         1.0       0.19470788285108112           0.3807238590541602 0.27724966648109745          1.0000   
         C         C         1.0       0.1490967978999524  0.30951255891341084           0.2484252624127033 1.0000   
         C         C         1.0       0.13543617415756587           0.28962295088295226          0.23283100082334646          1.0000   
         C         C         1.0       0.13797609831105537           0.26759963697745476          0.25975000309478535          1.0000   
         C         C         1.0       0.1534701156868958  0.2656802890578367  0.3006287220329602 1.0000   
         C         C         1.0       0.16641089797702513           0.2862913272897236 0.31611999981414446          1.0000   
         C         C         1.0       0.16351325400379543           0.30945269595382013          0.29124965321196533          1.0000   
         H         H         1.0       0.16853439197259937           0.30301512781145185          0.5253474278457897 1.0000   
         H         H         1.0       0.19597586253934998           0.3692319001624602 0.5973556745653795 1.0000   
         H         H         1.0       0.21599055060492173           0.3441155295325065 0.6603358147651742 1.0000   
         H         H         1.0       0.18998545554549393           0.27710480969936513          0.5833792125570256 1.0000   
         H         H         1.0       0.21053079720206738           0.3800193239339613 0.4936199208508533 1.0000   
         H         H         1.0       0.21696900274092296           0.42326388807044724          0.46971989202854497          1.0000   
         H         H         1.0       0.14118347366892572           0.4414311801457718 0.4997251616809389 1.0000   
         H         H         1.0       0.13362702581421018           0.39883590438820365          0.52527372048428   1.0000   
         H         H         1.0       0.2032706264540062  0.3264483377988701  0.46842553174802765          1.0000   
         H         H         1.0       0.2080657765352491  0.31850937297743126           0.3901602694480334 1.0000   
         H         H         1.0       0.13976594594779898           0.35447108128290744          0.35160098856531063          1.0000   
         H         H         1.0       0.1344220419707615  0.36491345132927094           0.43571248352782704          1.0000   
         H         H         1.0       0.23220910160134708           0.29752984676083355          0.18175179277099646          1.0000   
         H         H         1.0       0.1949446109554336  0.31189999623376546           0.2111329660501859 1.0000   
         H         H         1.0       0.22834273766596552           0.34001795419779735          0.34040136255978237          1.0000   
         H         H         1.0       0.2693098277242265  0.32684962328609074           0.31104856002531783          1.0000   
         H         H         1.0       0.13680738703662765           0.3592429807692683 0.271330492944794  1.0000   
         H         H         1.0       0.13080839700868743           0.3976584622858662 0.229597126310553  1.0000   
         H         H         1.0       0.20424102083334167           0.41962841083114166          0.2661359525066534 1.0000   
         H         H         1.0       0.21360882006980444           0.37910824714925967          0.29382206225837915          1.0000   
         H         H         1.0       0.1509487207026918  0.3266544406119728  0.2261963082992555 1.0000   
         H         H         1.0       0.12558997232121705           0.29066011688490256          0.19692989544112285          1.0000   
         H         H         1.0       0.15756128028743635           0.24720622855954538          0.3145266767946756 1.0000   
         H         H         1.0       0.17950818098274443           0.28369654605127953          0.3469802406434134 1.0000   
         C         C         1.0       0.30772811730683214           0.26916695738957286          0.2683892607962634 1.0000   
         C         C         1.0       0.3203167774085173  0.28441429212628455           0.30112476111181735          1.0000   
         C         C         1.0       0.3433672602345458  0.2769082447287559  0.3203453058287851 1.0000   
         C         C         1.0       0.35517286283085137           0.2548742600189267 0.30227544014758384          1.0000   
         C         C         1.0       0.3429058979427023  0.23960523105086168           0.26974290420557173          1.0000   
         C         C         1.0       0.31914533531365    0.24639819149214637           0.25309305719013714          1.0000   
         H         H         1.0       0.31078907998340755           0.30052740424734853          0.31700340690711987          1.0000   
         H         H         1.0       0.35392560495451464           0.28859620971654854          0.3430239139158515 1.0000   
         H         H         1.0       0.34877624641362825           0.22145606854755456          0.258320658855849  1.0000   
         H         H         1.0       0.30983926926474553           0.2355663312076838 0.22477766581873374          1.0000   
         C         C         1.0       0.36820631855579194           0.20498007826642117          0.35510123203920757          1.0000   
         C         C         1.0       0.38722137154004893           0.2187740862880158 0.335079342559511  1.0000   
         C         C         1.0       0.41098742080235806           0.20763376341423992          0.3328255427308675 1.0000   
         C         C         1.0       0.4152758697498584  0.185173221187519   0.3515823958039426 1.0000   
         C         C         1.0       0.3979899429043661  0.17341056125175686           0.37830911827432046          1.0000   
         C         C         1.0       0.37335362966585034           0.18202276032529868          0.3784648953291247 1.0000   
         C         C         1.0       0.38266491404298775           0.24829770396192358          0.3220199492616456 1.0000   
         C         C         1.0       0.391119898719376   0.25883983764576585           0.3754732072028633 1.0000   
         C         C         1.0       0.41589380647141133           0.2650189789022144 0.3892696217884025 1.0000   
         C         C         1.0       0.4224946176615468  0.27378509359618    0.4368149329641639 1.0000   
         C         C         1.0       0.40389719431166515           0.2750182591059363 0.47081373928361425          1.0000   
         C         C         1.0       0.3797667540134194  0.2685557308842353  0.46004130856040754          1.0000   
         C         C         1.0       0.3744248554768983  0.259067242282134   0.4134568366438056 1.0000   
         C         C         1.0       0.40353871449968626           0.24349186457810348          0.23862335437579987          1.0000   
         C         C         1.0       0.4194483480501101  0.2522333057441495  0.20046840655086193          1.0000   
         C         C         1.0       0.4292419894781676  0.27698821984291744           0.2048119366493831 1.0000   
         C         C         1.0       0.42244519671393815           0.29190786543687686          0.2435679770061408 1.0000   
         C         C         1.0       0.4055756234614913  0.2830486718687434  0.2776173377892946 1.0000   
         C         C         1.0       0.3987269475482984  0.2581007301387725  0.27825134382938493          1.0000   
         C         C         1.0       0.4536442752070744  0.285815051697383   0.17625333186362038          1.0000   
         C         C         1.0       0.5117363575609832  0.293278214455618   0.29365555924276765          1.0000   
         C         C         1.0       0.49785169355674547           0.27176088147510086          0.2889459996028778 1.0000   
         C         C         1.0       0.4803219120561821  0.27002288342269637           0.25053962718968303          1.0000   
         C         C         1.0       0.47412650494766095           0.2900621491270989 0.2195746871996726 1.0000   
         C         C         1.0       0.48653849729627996           0.3127352829711365 0.2303648974572839 1.0000   
         C         C         1.0       0.5047702178488784  0.3135360808549652  0.2683048571907121 1.0000   
         C         C         1.0       0.4491651829894552  0.3097989824222603  0.14174647541692487          1.0000   
         C         C         1.0       0.426761490436948   0.3226192029049655  0.1366443964726109 1.0000   
         C         C         1.0       0.4254569067258311  0.34315110055234754           0.10606160200602387          1.0000   
         C         C         1.0       0.4467508091332022  0.350512132491447   0.0799742035884421 1.0000   
         C         C         1.0       0.46797002340646693           0.33738674276941255          0.08517569834817054          1.0000   
         C         C         1.0       0.4701539422582162  0.317953716440006   0.11688512645157992          1.0000   
         C         C         1.0       0.4894645004994768  0.25727193517641733           0.13719535047166745          1.0000   
         C         C         1.0       0.4991527532007076  0.24478157323724842           0.09846883009005318          1.0000   
         C         C         1.0       0.4836188781793019  0.2376873015874378  0.06067943816799349          1.0000   
         C         C         1.0       0.45866615880630535           0.24265779957334427          0.060900810602526646         1.0000   
         C         C         1.0       0.44881338508682855           0.25752499679141255          0.09683835302310279          1.0000   
         C         C         1.0       0.46450701194039673           0.2655386338528633 0.1368683430839834 1.0000   
         H         H         1.0       0.34992562912665204           0.21356611700798686          0.362020739580554  1.0000   
         H         H         1.0       0.4266558835764144  0.2199871205926118  0.33032040215425246          1.0000   
         H         H         1.0       0.43371284976159047           0.17956124115811803          0.3572984934617354 1.0000   
         H         H         1.0       0.3597356854351727  0.17136601813010266           0.3979261501918925 1.0000   
         H         H         1.0       0.43044733311539424           0.26452690622830927          0.36098643886561776          1.0000   
         H         H         1.0       0.44101804078242707           0.28166985042305825          0.4467289110944226 1.0000   
         H         H         1.0       0.3640468100781313  0.27092654102239316           0.4855742168717954 1.0000   
         H         H         1.0       0.35582469280873785           0.25284111343563453          0.40615704454241397          1.0000   
         H         H         1.0       0.3959042249603346  0.22502327396840807           0.23589274408364969          1.0000   
         H         H         1.0       0.42332635427087256           0.23854713728217242          0.1729686750946357 1.0000   
         H         H         1.0       0.43066940333097037           0.31081851679070427          0.2504268880731249 1.0000   
         H         H         1.0       0.4020904991702472  0.2961950448262678  0.3078721805052158 1.0000   
         H         H         1.0       0.5055806337059778  0.254243902020251   0.30596995265408794          1.0000   
         H         H         1.0       0.46959507497943787           0.2531400791300821 0.24699269962748582          1.0000   
         H         H         1.0       0.47877437847143556           0.3317434568974152 0.2205503813071173 1.0000   
         H         H         1.0       0.5135955892762913  0.3312407121782322  0.2771831253459926 1.0000   
         H         H         1.0       0.41153142920734676           0.3178067839151681 0.16054352812249628          1.0000   
         H         H         1.0       0.40934468941968793           0.3538828451092111 0.10258608879339792          1.0000   
         H         H         1.0       0.4840252630018887  0.3417473136297834  0.06454554391539326          1.0000   
         H         H         1.0       0.489933097843266   0.3090658952816305  0.12317255322128572          1.0000   
         H         H         1.0       0.5027123350430265  0.26235492048781445           0.16631395080896877          1.0000   
         H         H         1.0       0.5188177484563673  0.24166437270376445           0.10105212206708043          1.0000   
         H         H         1.0       0.4461348054985408  0.23494332460302228           0.03386290166911721          1.0000   
         H         H         1.0       0.4285660752446332  0.26236839825744807           0.09613677723960178          1.0000   
         C         C         1.0       0.28174094030108154           0.2743357887714172 0.24893525131985744          1.0000   
         C         C         1.0       0.2771727450706155  0.3010149382861832  0.22234149514926493          1.0000   
         H         H         1.0       0.2739182381257157  0.25981194650347733           0.22458918928981245          1.0000   
         H         H         1.0       0.2703718720003064  0.27406125972795564           0.2819675299024059 1.0000   
         H         H         1.0       0.27505485709833305           0.2965130851839656 0.18265208717865705          1.0000   
         H         H         1.0       0.29427988369387365           0.3124194384065026 0.2225171672705167 1.0000   
         C         C         1.0       0.41084551528032137           0.15771842448889284          0.4610505388146675 1.0000   
         C         C         1.0       0.40721274738404944           0.15077545082111962          0.40656636331479096          1.0000   
         H         H         1.0       0.39571094335369444           0.15020102017184328          0.4837091429439795 1.0000   
         H         H         1.0       0.41192637481580463           0.1784157168229125 0.4681085031468661 1.0000   
         H         H         1.0       0.39235525797278875           0.13689387786820584          0.40593263454169765          1.0000   
         H         H         1.0       0.4231177874796953  0.14083113588897483           0.3881767284745685 1.0000   
         C         C         1.0       0.5108285675530234  0.06624420801193431           0.7286386529284691 1.0000   
         C         C         1.0       0.49116280366728804           0.0447724840674768 0.7286706139554836 1.0000   
         H         H         1.0       0.5288716372631472  0.06003105618894856           0.7411082365186716 1.0000   
         H         H         1.0       0.5042716653533487  0.0774038675181825  0.761565820366545  1.0000   
         H         H         1.0       0.47580998047460205           0.04789364952178965          0.702900053548564  1.0000   
         H         H         1.0       0.4832779240582972  0.042757400671930235         0.765677872824113  1.0000   
         C         C         1.0       0.6493495051839524  0.9617214750510955  0.7434807806470425 1.0000   
         C         C         1.0       0.6310970615285035  0.9387090433072871  0.7418780670259143 1.0000   
         H         H         1.0       0.6396630092435692  0.9759899703337022  0.768734532300325  1.0000   
         H         H         1.0       0.6494232245808708  0.969550398633124   0.705868832288038  1.0000   
         H         H         1.0       0.6372422971234831  0.9265774176527748  0.7112488436723713 1.0000   
         H         H         1.0       0.6339237996420636  0.9268333868408374  0.7725610913247818 1.0000   
         C         C         1.0       0.8289746115989253  0.9266646815300557  0.002129399355583095         1.0000   
         C         C         1.0       0.8179257266649459  0.9426661160113808  0.9578533961592497 1.0000   
         H         H         1.0       0.815767936228493   0.9144749241545743  0.020518380207823483         1.0000   
         H         H         1.0       0.8365680140742083  0.941765038319053   0.027219741122554764         1.0000   
         H         H         1.0       0.8102878452395388  0.9588654718756243  0.9721495947004452 1.0000   
         H         H         1.0       0.8335099227621653  0.9496951612754452  0.9296962349277615 1.0000   
         C         C         1.0       0.16507013433988701           0.46042980838837216          0.2472521910727141 1.0000   
         C         C         1.0       0.16216184623263968           0.43660982802316134          0.21575877134339905          1.0000   
         H         H         1.0       0.18369088346843884           0.46718234360405575          0.24856514940752203          1.0000   
         H         H         1.0       0.1582077557732902  0.456561736421286   0.2864431057669933 1.0000   
         H         H         1.0       0.1759925470296127  0.4383044165365199  0.18444102503479248          1.0000   
         H         H         1.0       0.14304683333541626           0.4371096424422178 0.20004379884678467          1.0000   
         C         C         1.0       0.9085576684283866  0.7442780727792953  0.015079052790662795         1.0000   
         C         C         1.0       0.9055666391298338  0.752858868968085   0.9615650125297414 1.0000   
         H         H         1.0       0.8992161845536386  0.725915540433023   0.01674049255130261          1.0000   
         H         H         1.0       0.8961718956588581  0.7537945754586388  0.04365500392322996          1.0000   
         H         H         1.0       0.8877835806994622  0.7447612159135277  0.9459724854350882 1.0000   
         H         H         1.0       0.9205879105131147  0.744028546747483   0.939267884238479  1.0000   
         C         C         1.0       0.05956685023266705           0.6388925873296499 0.14777981947926855          1.0000   
         C         C         1.0       0.07343240735292951           0.6253529008397325 0.10376825330459782          1.0000   
         H         H         1.0       0.0726447313340627  0.6431456699624344  0.1784552946010185 1.0000   
         H         H         1.0       0.04510888852898842           0.6259101059826876 0.16392983395157912          1.0000   
         H         H         1.0       0.06275619448827467           0.6259805849469212 0.0689778804149308 1.0000   
         H         H         1.0       0.08893726568160402           0.638681322251151  0.09557034585647411          1.0000   
         C         C         1.0       0.6767629652686026  0.21051550997376284           0.555870929448804  1.0000   
         C         C         1.0       0.6754648454409725  0.23931573078562723           0.5466271147913574 1.0000   
         H         H         1.0       0.6812775753017073  0.20135818065628763           0.5228359908822712 1.0000   
         H         H         1.0       0.6926060887277035  0.20653179981139094           0.5782811392828072 1.0000   
         H         H         1.0       0.6605302726147513  0.24350272978714677           0.5219016347761136 1.0000   
         H         H         1.0       0.6905740769848242  0.24339640737476853           0.5213820837893737 1.0000   
         C         C         1.0       0.010351608771003828          0.3596558306604284 0.9430251005436249 1.0000   
         C         C         1.0       0.01799097119533366           0.36202819123738034          0.9980039860491888 1.0000   
         H         H         1.0       0.003217402575656836          0.3785763724850113 0.92926310942563   1.0000   
         H         H         1.0       0.026805525691501186          0.35452131808725856          0.9213914458563862 1.0000   
         H         H         1.0       0.02190805677938168           0.3436657323612036 0.0128660799242728 1.0000   
         H         H         1.0       0.001663747356751566          0.3671935154951094 0.019572529845480968         1.0000   
         C         C         1.0       0.8242823842591749  0.25787178735765226           0.6739276866870775 1.0000   
         C         C         1.0       0.8259715109870671  0.2363103943905868  0.7127016184201987 1.0000   
         H         H         1.0       0.8068339114005781  0.2673156212094859  0.6837389344039173 1.0000   
         H         H         1.0       0.819587848609569   0.2509575945545286  0.6350039784640514 1.0000   
         H         H         1.0       0.8450424441422187  0.23225435985261325           0.7221819427550634 1.0000   
         H         H         1.0       0.8209166083254829  0.2187557523369718  0.6937513964892145 1.0000   
         C         C         1.0       0.9993757675261652  0.4934066640248753  0.27430388125905725          1.0000   
         C         C         1.0       0.0019141129753168034         0.5220911801362642 0.27572244368137677          1.0000   
         H         H         1.0       0.9796652385366784  0.4885067533876285  0.28935927491580277          1.0000   
         H         H         1.0       0.9978131644480663  0.4873525367383151  0.23524713801720581          1.0000   
         H         H         1.0       0.005537555741077157          0.530092411262231  0.31419453373674827          1.0000   
         H         H         1.0       0.9836453060114178  0.5308821088612075  0.2633859581466122 1.0000   
         C         C         1.0       0.0955279451834076  0.4296740025066814  0.8039584354632436 1.0000   
         C         C         1.0       0.07143608293380808           0.41553428163829564          0.7932161450280144 1.0000   
         H         H         1.0       0.09277279382087489           0.4507916284672695 0.7918892279758846 1.0000   
         H         H         1.0       0.11148967534488395           0.42159664207586817          0.7814324029191639 1.0000   
         H         H         1.0       0.07478802519031442           0.3955540600404422 0.7972427299490814 1.0000   
         H         H         1.0       0.05801858677638777           0.4209905967727872 0.820831634419007  1.0000   
         C         C         1.0       0.1715124486170264  0.46024942668603763           0.40603281393034424          1.0000   
         C         C         1.0       0.18125735550376412           0.45987871138058334          0.4612785248756296 1.0000   
         H         H         1.0       0.17486678762319538           0.47966336789288605          0.39107434109337486          1.0000   
         H         H         1.0       0.1821578658096675  0.44811168202146456           0.38054435982635454          1.0000   
         H         H         1.0       0.17033536006473202           0.4725337940865906 0.4839649355443594 1.0000   
         H         H         1.0       0.20030246164216733           0.4669909105101631 0.4612385162598709 1.0000   
         C         C         1.0       0.9179413300074871  0.43684420720514083           0.6086459413395273 1.0000   
         C         C         1.0       0.9065986958330063  0.43196732057589304           0.6595978487972024 1.0000   
         H         H         1.0       0.9083592233889665  0.45143836109100266           0.5870517066129076 1.0000   
         H         H         1.0       0.9134205066633323  0.4193719529943558  0.5833980621500059 1.0000   
         H         H         1.0       0.8881439643642602  0.4403690327025467  0.6587694867717603 1.0000   
         H         H         1.0       0.9152956399084655  0.4444634237108815  0.689338075798163  1.0000   
         C         C         1.0       0.048920147774609915          0.7653459887001808 0.8908205543782453 1.0000   
         C         C         1.0       0.07471067631086417           0.750455790142847  0.8892252770690408 1.0000   
         H         H         1.0       0.05524015189011464           0.78465955660792   0.8867809249434828 1.0000   
         H         H         1.0       0.03569967965488591           0.7627104425048651 0.8614697612720724 1.0000   
         H         H         1.0       0.07439713462129409           0.7316456030639084 0.9080303418528853 1.0000   
         H         H         1.0       0.08641017427831137           0.7622871595285131 0.9125882070720166 1.0000   
         C         C         1.0       0.9857362469865025  0.678389933897275   0.3895284243436674 1.0000   
         C         C         1.0       0.9924707523021599  0.6519009020291494  0.413769696069386  1.0000   
         H         H         1.0       0.9762510820914044  0.6892286150439988  0.4186455479780678 1.0000   
         H         H         1.0       0.969516051785057   0.6760504145382739  0.36452725339169406          1.0000   
         H         H         1.0       0.9765345745476107  0.6458622657833288  0.435060234899063  1.0000   
         H         H         1.0       0.9936218753819329  0.6373565033774207  0.3827330876174169 1.0000   
         C         C         1.0       0.015072559055289312          0.8180984999111198 0.7052877043020143 1.0000   
         C         C         1.0       0.01519386033017378           0.8330817240370095 0.7540701104950892 1.0000   
         H         H         1.0       0.9969397822828315  0.808264176153661   0.697465831494488  1.0000   
         H         H         1.0       0.016049664069641513          0.8333175343393109 0.6758530614368774 1.0000   
         H         H         1.0       0.034242997265609594          0.8402623248478999 0.7633729081031696 1.0000   
         H         H         1.0       0.011748222901753591          0.821969412632631  0.7863416259345083 1.0000   
         C         C         1.0       0.06438751043433132           0.5471984690570285 0.5546375428371152 1.0000   
         C         C         1.0       0.08955996453419855           0.55752930330791   0.5737254521457933 1.0000   
         H         H         1.0       0.06276794751097275           0.550491004964654  0.5159219784463497 1.0000   
         H         H         1.0       0.0497195111102563  0.5576414612960104  0.5698266986941534 1.0000   
         H         H         1.0       0.10634787991014863           0.5482296871560198 0.5554337197328167 1.0000   
         H         H         1.0       0.09041379927076403           0.5539717286623281 0.6133831314895705 1.0000   
         C         C         1.0       0.5224845401429568  0.82021176577834    0.32835619825804896          1.0000   
         C         C         1.0       0.5420066532232249  0.820702367424601   0.37013636243253284          1.0000   
         H         H         1.0       0.5240167912377196  0.8019562494555599  0.3084568886320718 1.0000   
         H         H         1.0       0.5258463872557907  0.8330256108826215  0.2964055818593494 1.0000   
         H         H         1.0       0.5598222048736708  0.8154753540861412  0.354486087728231  1.0000   
         H         H         1.0       0.5378620822158009  0.8051811861500625  0.394777429297011  1.0000   
         C         C         1.0       0.12507708543261176           0.7681503737990828 0.4484962782495931 1.0000   
         C         C         1.0       0.1443238859175812  0.7465412901216143  0.45469858235715477          1.0000   
         H         H         1.0       0.10805283804405351           0.7625107962872995 0.4282837212405081 1.0000   
         H         H         1.0       0.11851854400281216           0.7720568376160051 0.487589231590656  1.0000   
         H         H         1.0       0.1592419970728252  0.7526681097352967  0.47662051772426567          1.0000   
         H         H         1.0       0.15091165309331694           0.7437857516549019 0.4153271098421707 1.0000   
         C         C         1.0       0.15687907716931196           0.7260698955614802 0.1894321851171075 1.0000   
         C         C         1.0       0.15362701392651687           0.7131668835440613 0.24012824507925276          1.0000   
         H         H         1.0       0.17425013048750715           0.7213254734287021 0.17275413193416952          1.0000   
         H         H         1.0       0.14158848179947706           0.7194127097189169 0.1651910933245475 1.0000   
         H         H         1.0       0.1659725245481597  0.7225140610655454  0.2671690718354373 1.0000   
         H         H         1.0       0.15793190987316041           0.6926039169018942 0.23685108140032068          1.0000   
         C         C         1.0       0.28454557407759573           0.8584947508402945 0.4333032296395978 1.0000   
         C         C         1.0       0.26434691011671324           0.8380085010199694 0.42322814908225087          1.0000   
         H         H         1.0       0.2996806671483993  0.8488583831687221  0.45802982507510615          1.0000   
         H         H         1.0       0.27676627650829627           0.8737413262997246 0.45576316396970035          1.0000   
         H         H         1.0       0.2607672110330276  0.8290858991266584  0.4583152833023515 1.0000   
         H         H         1.0       0.2720427865525339  0.8238156267606943  0.4009641792700093 1.0000   
         C         C         1.0       0.5184849268224648  0.10220122255263993           0.3053349221749422 1.0000   
         C         C         1.0       0.5325146904518778  0.08568096294825846           0.34653987551018767          1.0000   
         H         H         1.0       0.5146827255887161  0.09110909717137186           0.272419054596319  1.0000   
         H         H         1.0       0.5015308845952378  0.10841950419612219           0.32184954857522174          1.0000   
         H         H         1.0       0.5519446003199374  0.08421488515150445           0.33573245497729803          1.0000   
         H         H         1.0       0.5235030921761794  0.06662918261285689           0.3491473538695408 1.0000   
         C         C         1.0       0.5833119525085706  0.20993831293929982           0.8704471162454498 1.0000   
         C         C         1.0       0.5613290909033732  0.19733518455899066           0.8457411287970705 1.0000   
         H         H         1.0       0.576959463490566   0.22873417024794276           0.8762236061272961 1.0000   
         H         H         1.0       0.5995681692083981  0.2131988020793786  0.8447781899293579 1.0000   
         H         H         1.0       0.5584663387959128  0.17820333453549517           0.8611835966947262 1.0000   
         H         H         1.0       0.5445291173076344  0.2076446495569761  0.8589058419050274 1.0000   
         C         C         1.0       0.5577840003611096  0.28756958660152415           0.30195179721724585          1.0000   
         C         C         1.0       0.5330563388733494  0.29405539987258805           0.3310853133982743 1.0000   
         H         H         1.0       0.5738672617912342  0.2959683432870823  0.3206566401698173 1.0000   
         H         H         1.0       0.5561532007240007  0.29567552681791903           0.26377502525802765          1.0000   
         H         H         1.0       0.5360736087632186  0.3134761527881954  0.3440771533032456 1.0000   
         H         H         1.0       0.5287495505588516  0.2825218841381407  0.36277114291559365          1.0000   
         C         C         1.0       0.7219641701837842  0.15191202261427791           0.014307719280924669         1.0000   
         C         C         1.0       0.7265818791424976  0.1444348453965304  0.9603238781520542 1.0000   
         H         H         1.0       0.7357539008382054  0.1667583244539457  0.029504898931789425         1.0000   
         H         H         1.0       0.726540381676702   0.13702258827208827           0.03979998115464567          1.0000   
         H         H         1.0       0.7107985966344627  0.13344029780287275           0.9412904800675268 1.0000   
         H         H         1.0       0.7410774631603612  0.12964413427452431           0.958763477609441  1.0000   
         C         C         1.0       0.43955798067693164           0.8897861765417077 0.8140728234787865 1.0000   
         C         C         1.0       0.45513742915728733           0.8749072633575349 0.7752826773331705 1.0000   
         H         H         1.0       0.422511333385594   0.8794034131315511  0.8258480911475329 1.0000   
         H         H         1.0       0.4301183505617211  0.9055415052826601  0.7961796216274362 1.0000   
         H         H         1.0       0.4670194410333876  0.8609004769659374  0.7972719209089089 1.0000   
         H         H         1.0       0.44224959672296266           0.8649392024565514 0.7517101535200789 1.0000   
         C         C         1.0       0.4388949128936102  0.9521092869624739  0.33734327727973035          1.0000   
         C         C         1.0       0.44865068476507125           0.9618183357339664 0.3865289250690361 1.0000   
         H         H         1.0       0.42158260643743206           0.9649759310021476 0.3360525772644907 1.0000   
         H         H         1.0       0.43162837746203314           0.932831246286588  0.33861997620011763          1.0000   
         H         H         1.0       0.44866241541504653           0.9818877649120168 0.39424482969530666          1.0000   
         H         H         1.0       0.4362507411035456  0.9553238689162169  0.41409894140378756          1.0000   
         C         C         1.0       0.576786967496517   0.994385318174836   0.8841853761938862 1.0000   
         C         C         1.0       0.6041735794455124  0.9914688285820471  0.9046971472260041 1.0000   
         H         H         1.0       0.5758468297459791  0.9897778865650233  0.8438381222105856 1.0000   
         H         H         1.0       0.5712312653589271  0.014447133104330323         0.8895137498747429 1.0000   
         H         H         1.0       0.6175992313655698  0.00031858669390372185       0.877678663990169  1.0000   
         H         H         1.0       0.6051868050856833  0.0035918059285855453        0.9371756353260633 1.0000   
         C         C         1.0       0.3595771944678076  0.0037921354402890017        0.16857882567552293          1.0000   
         C         C         1.0       0.356965614023048   0.9977541406972008  0.2233091932700969 1.0000   
         H         H         1.0       0.3524882303938537  0.023697971484345937         0.16123831252874748          1.0000   
         H         H         1.0       0.3478226243646189  0.9902970073144883  0.14439012757730532          1.0000   
         H         H         1.0       0.3412609701036461  0.006582506704572388         0.23693741412372066          1.0000   
         H         H         1.0       0.371923561921602   0.006416706016949547         0.24443133474692716          1.0000   
         C         C         1.0       0.5488602097211623  0.05382033934257313           0.08331075868467613          1.0000   
         C         C         1.0       0.5541897886505291  0.07427976339321934           0.12299031497986192          1.0000   
         H         H         1.0       0.5671294045338523  0.04497095361172687           0.07831123522354971          1.0000   
         H         H         1.0       0.5438726902379449  0.060541117807497276         0.04521451703229462          1.0000   
         H         H         1.0       0.5595717238587563  0.0646807769170561  0.15930345788314826          1.0000   
         H         H         1.0       0.5371739455309835  0.08280710149526628           0.13585496448007525          1.0000   
         C         C         1.0       0.7796931960720581  0.271182728749707   0.11414309702042462          1.0000   
         C         C         1.0       0.7757468486848696  0.2888455598935162  0.0686023488182175 1.0000   
         H         H         1.0       0.7935178585781754  0.27899326600459545           0.13854860239233324          1.0000   
         H         H         1.0       0.7870264309638462  0.2519480281358799  0.10403442798895121          1.0000   
         H         H         1.0       0.7628978747458522  0.3046988255290396  0.07797843409815705          1.0000   
         H         H         1.0       0.794334124980874   0.29792422660526335           0.06138827717300213          1.0000   
         C         C         1.0       0.6837773692914224  0.3463617035155208  0.5744200887873929 1.0000   
         C         C         1.0       0.693842471328634   0.367893060237628   0.6086483708537361 1.0000   
         H         H         1.0       0.6942273637023332  0.32897050376751286           0.588197013057248  1.0000   
         H         H         1.0       0.6633553288509882  0.3414833104374763  0.5836173773770974 1.0000   
         H         H         1.0       0.6840682970520452  0.38611247691887507           0.6060774540479914 1.0000   
         H         H         1.0       0.7126038296964726  0.3742219458094489  0.5962627302934598 1.0000   
         C         C         1.0       0.7021690543387424  0.1649616615869818  0.344702085433611  1.0000   
         C         C         1.0       0.6804692120869046  0.16155622966994557           0.38217951421937174          1.0000   
         H         H         1.0       0.7041998496103407  0.14773511424828098           0.32049508733492615          1.0000   
         H         H         1.0       0.7207768049388467  0.16551029372647097           0.36376477111099587          1.0000   
         H         H         1.0       0.681802584743502   0.17621083536675766           0.4097233358376546 1.0000   
         H         H         1.0       0.6862319395337894  0.144300801090893   0.40215150751858453          1.0000   
         C         C         1.0       0.004763962772317498          0.3311226212139023 0.5837607281322148 1.0000   
         C         C         1.0       0.006070240229505641          0.3415970489796054 0.5304475930614738 1.0000   
         H         H         1.0       0.013849770577420761          0.3451266434392172 0.6073811384814735 1.0000   
         H         H         1.0       0.01632766276211184           0.3127648265678095 0.586853872933907  1.0000   
         H         H         1.0       0.9920334918553966  0.35593578117407043           0.5248287153668839 1.0000   
         H         H         1.0       0.024032878874015173          0.3527995456853155 0.5260434360136081 1.0000   
         C         C         1.0       0.8658983584987077  0.2618348685757934  0.06419954903742542          1.0000   
         C         C         1.0       0.8744389432868116  0.2360940363330777  0.07967670858286505          1.0000   
         H         H         1.0       0.8654445211766553  0.2751175593003454  0.09365917657217172          1.0000   
         H         H         1.0       0.8463516982596735  0.2596145015938937  0.05427013834627559          1.0000   
         H         H         1.0       0.8911654893268142  0.2287313893131428  0.05962680168668877          1.0000   
         H         H         1.0       0.8612667387031988  0.22112506509073496           0.06628400529634147          1.0000   
         C         C         1.0       0.08625086311736596           0.33448287294001694          0.29298281943544724          1.0000   
         C         C         1.0       0.06934768098591348           0.3177496867066575 0.2571138691113108 1.0000   
         H         H         1.0       0.10080454842305908           0.32429382233707404          0.3141837811730027 1.0000   
         H         H         1.0       0.09634929578555695           0.34620697344850954          0.26685565615594975          1.0000   
         H         H         1.0       0.08160753428555188           0.30695704661832995          0.22930768847626873          1.0000   
         H         H         1.0       0.05761509102850981           0.32902312931261835          0.23048743575513767          1.0000   
         C         C         1.0       0.796486097844345   0.2803069923333866  0.32550332275218397          1.0000   
         C         C         1.0       0.8167355258964292  0.27829663393124743           0.36634270393975316          1.0000   
         H         H         1.0       0.7912905470907887  0.2600544238039923  0.3130712755411372 1.0000   
         H         H         1.0       0.8043835165496807  0.2905768931908911  0.293997718838579  1.0000   
         H         H         1.0       0.8073101223413182  0.26702302413120493           0.39606889608797585          1.0000   
         H         H         1.0       0.8196059933679614  0.2958723156168013  0.38553825876165987          1.0000   
         C         C         1.0       0.7063683034680865  0.46020337326104843           0.3876628436842777 1.0000   
         C         C         1.0       0.7065415310056418  0.44822214491218504           0.333930701350388  1.0000   
         H         H         1.0       0.7073988579177091  0.4815361223141223  0.3884724257227474 1.0000   
         H         H         1.0       0.722551524850532   0.4541501853614978  0.4103477451949868 1.0000   
         H         H         1.0       0.7185253574304685  0.45863142755386255           0.3065352315353619 1.0000   
         H         H         1.0       0.688205769173357   0.45378315969903005           0.3159677304123635 1.0000   
         C         C         1.0       0.5631885626197649  0.3115246485364249  0.7659012676481144 1.0000   
         C         C         1.0       0.5740152699024339  0.2998600246832307  0.8118336791815256 1.0000   
         H         H         1.0       0.5421504657809232  0.3110664716832001  0.7690481506443303 1.0000   
         H         H         1.0       0.5655936038075872  0.2986937312882209  0.7307962056337665 1.0000   
         H         H         1.0       0.5634854501716752  0.2834244094434642  0.8173828149733963 1.0000   
         H         H         1.0       0.5711372786730173  0.31130999533725473           0.8438034504575127 1.0000   
         C         C         1.0       0.3877709070332953  0.7549091949420428  0.5177647094109555 1.0000   
         C         C         1.0       0.3936197720475953  0.7371307291323932  0.47481478948283945          1.0000   
         H         H         1.0       0.39840285481481214           0.7471605766621794 0.5516482098762777 1.0000   
         H         H         1.0       0.3673672916921956  0.754788277162732   0.5296165026468685 1.0000   
         H         H         1.0       0.3824030400607808  0.7208475724844233  0.4827108142449994 1.0000   
         H         H         1.0       0.38468879297934977           0.744958237076285  0.4417042302278389 1.0000   
         C         C         1.0       0.5370688414349444  0.5065135515608842  0.5462843966612632 1.0000   
         C         C         1.0       0.5290236547576681  0.5277639037379764  0.5094206474856741 1.0000   
         H         H         1.0       0.5186288338354273  0.4980526392301697  0.5593079987731576 1.0000   
         H         H         1.0       0.5475460736870044  0.5150023500545687  0.5778080754776606 1.0000   
         H         H         1.0       0.5110226276834471  0.5214542874433106  0.4871452403122751 1.0000   
         H         H         1.0       0.543982729748471   0.5302278005493839  0.48188037470826645          1.0000   
         C         C         1.0       0.9717626010417891  0.13642948316019762           0.37011248958916176          1.0000   
         C         C         1.0       0.9446934591847397  0.12987200501675863           0.35630161390122694          1.0000   
         H         H         1.0       0.979030424238073   0.12065383859621825           0.39003046556458554          1.0000   
         H         H         1.0       0.9731017670054216  0.15374068404268368           0.3966966010646196 1.0000   
         H         H         1.0       0.9365187189784614  0.12336246753223189           0.3905708757418774 1.0000   
         H         H         1.0       0.9432238696109843  0.11237504184802233           0.3300232195567944 1.0000   
         C         C         1.0       0.9463294331853672  0.17351178463956896           0.9183506567411017 1.0000   
         C         C         1.0       0.9692237504873186  0.15896268257833332           0.8954777396471676 1.0000   
         H         H         1.0       0.9439114068210431  0.16813501791911978           0.9577422425639964 1.0000   
         H         H         1.0       0.9285897211891905  0.166856894986617   0.9035025470726404 1.0000   
         H         H         1.0       0.9673887882603835  0.13885785081094368           0.8983939326337822 1.0000   
         H         H         1.0       0.973266652984744   0.1629299924698698  0.8553699579423113 1.0000   
         C         C         1.0       0.06888594056480841           0.8638817281685433 0.9656987605670179 1.0000   
         C         C         1.0       0.056714860709346886          0.8516545302689614 0.0109298477759745 1.0000   
         H         H         1.0       0.055639530800800176          0.864364617262097  0.9332180215796901 1.0000   
         H         H         1.0       0.08409340856052373           0.8503260442598208 0.9498680671107532 1.0000   
         H         H         1.0       0.04406281053759382           0.8645269938364628 0.026741956361159502         1.0000   
         H         H         1.0       0.048035997206062754          0.8343604009393519 0.9950453407197973 1.0000   
         C         C         1.0       0.1198540667007434  0.09114539207311993           0.08681395887500212          1.0000   
         C         C         1.0       0.11099443349325831           0.07517203144314608          0.13360842800562409          1.0000   
         H         H         1.0       0.13370533581812616           0.10565259402705653          0.09932420967110346          1.0000   
         H         H         1.0       0.10235190864007632           0.10018743800913747          0.07393898551691434          1.0000   
         H         H         1.0       0.10243704278870593           0.05749277500911676          0.1176806205141886 1.0000   
         H         H         1.0       0.1289186379250137  0.06943367657649144           0.1507078749296971 1.0000   
         C         C         1.0       0.3699202113183544  0.8599008123076195  0.04183535597154431          1.0000   
         C         C         1.0       0.34872195588992    0.8564176037670904  0.07952869933380374          1.0000   
         H         H         1.0       0.38030878529058987           0.8777695774415811 0.048724580991884446         1.0000   
         H         H         1.0       0.361463367389483   0.8639098033714127  0.0037736132899854895        1.0000   
         H         H         1.0       0.34430054946076033           0.836618997069076  0.08233827008239551          1.0000   
         H         H         1.0       0.333410543618689   0.8658590437235657  0.06338678371642341          1.0000   
         C         C         1.0       0.4718902144997338  0.8520226327447339  0.6354736100036166 1.0000   
         C         C         1.0       0.4615835536591894  0.8773475852869812  0.6196374772356343 1.0000   
         H         H         1.0       0.4861710217863944  0.8563850215799477  0.6636593223072922 1.0000   
         H         H         1.0       0.48128378128706956           0.8424453642226741 0.6043926069904458 1.0000   
         H         H         1.0       0.4458046422869099  0.8846853365928844  0.6429209954068184 1.0000   
         H         H         1.0       0.4764653815449862  0.8902045224174688  0.6257779069645252 1.0000   
         C         C         1.0       0.53868183800545    0.8032186999852282  0.9791748586588699 1.0000   
         C         C         1.0       0.5437589746375259  0.8190431528358837  0.025385733661128063         1.0000   
         H         H         1.0       0.5468018262961396  0.8113280372544299  0.9457613038636146 1.0000   
         H         H         1.0       0.5494188801424981  0.7854962924309129  0.9906096357503144 1.0000   
         H         H         1.0       0.5653584463581341  0.8177886783783896  0.034367628689221386         1.0000   
         H         H         1.0       0.5340138522154881  0.8126203768762267  0.05902309751003481          1.0000   
         C         C         1.0       0.41632354219237977           0.692225488125682  0.6281723693315705 1.0000   
         C         C         1.0       0.421142463044278   0.6685312071055722  0.6603027208675194 1.0000   
         H         H         1.0       0.3987759618264588  0.687060101760873   0.6067629273293176 1.0000   
         H         H         1.0       0.4299932945993191  0.6958665711758635  0.5973796944055942 1.0000   
         H         H         1.0       0.40585668114779083           0.655910893223339  0.6563120687579131 1.0000   
         H         H         1.0       0.42315611069572656           0.672140645899657  0.700711117988024  1.0000   
         C         C         1.0       0.19676347427208882           0.912883993102572  0.9989022168428677 1.0000   
         C         C         1.0       0.1876468091852105  0.884374755635791   0.9906890479733974 1.0000   
         H         H         1.0       0.21345647020175193           0.9122209166131983 0.02399794888915263          1.0000   
         H         H         1.0       0.18220383905809248           0.9252517247633595 0.016492875378584237         1.0000   
         H         H         1.0       0.20386325408123712           0.8739128167336    0.9761663957071457 1.0000   
         H         H         1.0       0.17381958579248832           0.8839509113806706 0.9585679868935345 1.0000   
         C         C         1.0       0.1394419189739976  0.9602667531954504  0.42794667525759317          1.0000   
         C         C         1.0       0.15702999487336636           0.9618924739499659 0.4742323544703865 1.0000   
         H         H         1.0       0.12009650495406846           0.9628134607804626 0.4424986971865006 1.0000   
         H         H         1.0       0.14081758610685816           0.9776234588105652 0.40234361274327757          1.0000   
         H         H         1.0       0.15131694338421384           0.9802598231918842 0.49380703392183234          1.0000   
         H         H         1.0       0.17541961833379896           0.9623715928057432 0.460522510283053  1.0000   
         C         C         1.0       0.21000867089393024           0.792112504011088  0.6183702567651611 1.0000   
         C         C         1.0       0.18998037643892562           0.7791403090880028 0.5847685191853932 1.0000   
         H         H         1.0       0.22874502629591958           0.7925983999075131 0.6012963662660322 1.0000   
         H         H         1.0       0.21502571423831038           0.7799726900547082 0.6499793752634577 1.0000   
         H         H         1.0       0.19975611699767315           0.7624557264456311 0.5657129198516458 1.0000   
         H         H         1.0       0.18553969322393493           0.7906554997113314 0.5544684183537989 1.0000   
         C         C         1.0       0.2711072545035123  0.026732594340358906         0.8301137101062905 1.0000   
         C         C         1.0       0.2729220562338015  0.028544577779042957         0.8897895351877321 1.0000   
         H         H         1.0       0.2896464468395746  0.03234697021099375           0.8135512172722529 1.0000   
         H         H         1.0       0.25798163079484326           0.04123936443572296          0.8148333043091873 1.0000   
         H         H         1.0       0.28034773748155484           0.046457718858786023         0.9008882965061465 1.0000   
         H         H         1.0       0.2873960206318104  0.01469276823645238           0.9028802788572201 1.0000   
         C         C         1.0       0.28907068223435983           0.8371617591820363 0.7358292291265365 1.0000   
         C         C         1.0       0.30151270774528305           0.8226942235441643 0.7796952573665576 1.0000   
         H         H         1.0       0.274123091686147   0.8254695121026597  0.7178848443914045 1.0000   
         H         H         1.0       0.3033976989339045  0.8427925556118919  0.7103229972722405 1.0000   
         H         H         1.0       0.2883844794789572  0.8066462699884533  0.791138248404165  1.0000   
         H         H         1.0       0.303061695473313   0.8366737437665859  0.8106652302081037 1.0000   
         C         C         1.0       0.5926499236741134  0.2605751581731849  0.1115196537140425 1.0000   
         C         C         1.0       0.5907301478168779  0.2749365544425435  0.06512660193467652          1.0000   
         H         H         1.0       0.5756962326829796  0.2632676123088723  0.1351069690811675 1.0000   
         H         H         1.0       0.5900874454184432  0.2407884700292012  0.09737519398076865          1.0000   
         H         H         1.0       0.5771062089968528  0.2648142846872627  0.039088740824940744         1.0000   
         H         H         1.0       0.6087885715504976  0.2749272172913006  0.043612588290190546         1.0000   
         C         C         1.0       0.5855732957737276  0.34761049861571863           0.34524376472925034          1.0000   
         C         C         1.0       0.6030496269849509  0.343688205665247   0.3012261152444448 1.0000   
         H         H         1.0       0.5891847968538607  0.3301227431015848  0.36701226538430554          1.0000   
         H         H         1.0       0.5638472262796155  0.34817437767351195           0.3395594485724275 1.0000   
         H         H         1.0       0.6224977600542446  0.3490240957300542  0.3073857082205188 1.0000   
         H         H         1.0       0.6016098595425929  0.3228892513564729  0.29227384774117227          1.0000   
         C         C         1.0       0.6757566702291884  0.4685024493317357  0.8589818664439132 1.0000   
         C         C         1.0       0.6792666778656238  0.4447048307806976  0.8303379311903675 1.0000   
         H         H         1.0       0.6751792768977226  0.4846944156845236  0.8323686716124716 1.0000   
         H         H         1.0       0.6929038232902264  0.4716691088355229  0.8812726048285261 1.0000   
         H         H         1.0       0.6835472251516654  0.42878659758691196           0.8589618857103098 1.0000   
         H         H         1.0       0.6971591103116391  0.44638389854036736           0.807695010403553  1.0000   
         C         C         1.0       0.4454553486125149  0.37509378622423756           0.050605487105367414         1.0000   
         C         C         1.0       0.45529544939877037           0.3984075657033965 0.07712856744208418          1.0000   
         H         H         1.0       0.45306016962463774           0.3706028914679908 0.013075442566793383         1.0000   
         H         H         1.0       0.4253016114672413  0.38118372917574395           0.04235455812863442          1.0000   
         H         H         1.0       0.45244562409141176           0.41469401254438015          0.052345387160659215         1.0000   
         H         H         1.0       0.44626786076339836           0.399094883265539  0.11212901217808792          1.0000   
         C         C         1.0       0.446839625830491   0.6601144940795908  0.9823539643968622 1.0000   
         C         C         1.0       0.4365454528654121  0.6720075679632329  0.029192786422310935         1.0000   
         H         H         1.0       0.4495559576118831  0.6397491157622032  0.9913715640578588 1.0000   
         H         H         1.0       0.4334533204534762  0.6597651469691812  0.9513608725636081 1.0000   
         H         H         1.0       0.4486642457463904  0.6683202726270875  0.06389021251711724          1.0000   
         H         H         1.0       0.41874078926383185           0.6617382736063137 0.0382409034885689 1.0000   
         C         C         1.0       0.6023786563906035  0.6262962539984008  0.7869581615921352 1.0000   
         C         C         1.0       0.6045505178219016  0.6330369779940731  0.73055085904775   1.0000   
         H         H         1.0       0.6208228570699658  0.6213309340340825  0.8025279719538722 1.0000   
         H         H         1.0       0.5895500028473168  0.6099828536743315  0.7905950489912259 1.0000   
         H         H         1.0       0.6196449586802387  0.6225468599398615  0.7112372460251503 1.0000   
         H         H         1.0       0.6111810155667649  0.6527852740502371  0.7297287405504723 1.0000   
         C         C         1.0       0.46604113880970865           0.6897853582894474 0.23515874990046848          1.0000   
         C         C         1.0       0.47912560302433926           0.7020189584301273 0.1896357097342528 1.0000   
         H         H         1.0       0.44695887202398255           0.6993321396717543 0.24113344888603683          1.0000   
         H         H         1.0       0.46103608654307643           0.6710419057088565 0.22439351412289033          1.0000   
         H         H         1.0       0.47933639292512586           0.7231850066609222 0.18949491044013278          1.0000   
         H         H         1.0       0.4674035620720963  0.699807800609765   0.15408778331999082          1.0000   
         C         C         1.0       0.5545400532258629  0.7981277145773288  0.824839711794329  1.0000   
         C         C         1.0       0.5801751624553728  0.8104276955452165  0.8086583319408511 1.0000   
         H         H         1.0       0.5439717155112932  0.7975382095303671  0.7904423195681435 1.0000   
         H         H         1.0       0.5456008137823852  0.8112885039218555  0.8542227730201438 1.0000   
         H         H         1.0       0.5779149847364418  0.820778227444158   0.7732296280232936 1.0000   
         H         H         1.0       0.5927986720689408  0.7951732386880758  0.7961811460508812 1.0000   
         C         C         1.0       0.6204423667531047  0.5758678522861728  0.12086303665275545          1.0000   
         C         C         1.0       0.6157266340970572  0.5697903326553544  0.06410571054131065          1.0000   
         H         H         1.0       0.6398223328765487  0.5713290062985285  0.12932950358387033          1.0000   
         H         H         1.0       0.6072438326597912  0.5636471078162493  0.1392443604388844 1.0000   
         H         H         1.0       0.6319573361314689  0.572337486239036   0.03889603697712163          1.0000   
         H         H         1.0       0.6001113013131221  0.5822376538110023  0.05456370984097588          1.0000   
         C         C         1.0       0.6212965652747517  0.8732652560422028  0.1806210624001881 1.0000   
         C         C         1.0       0.6227860745472625  0.8513425820262568  0.14184017821306483          1.0000   
         H         H         1.0       0.6011785113397061  0.8771744330056662  0.18804326586163306          1.0000   
         H         H         1.0       0.6300483613149949  0.8897101019308048  0.16665108622091318          1.0000   
         H         H         1.0       0.6370199799163997  0.838140543456677   0.15107649273558468          1.0000   
         H         H         1.0       0.6035419882068924  0.8408325645203559  0.14321251795296563          1.0000   
         C         C         1.0       0.74882092341366    0.8190640498423546  0.6746075462124275 1.0000   
         C         C         1.0       0.7707586600098428  0.8352676639044415  0.691384770716435  1.0000   
         H         H         1.0       0.7566919299159247  0.8040327906227867  0.6517165473060604 1.0000   
         H         H         1.0       0.7413608129206256  0.8079272031654137  0.7071915534133763 1.0000   
         H         H         1.0       0.7803944330725588  0.8435764729504319  0.6576457257591821 1.0000   
         H         H         1.0       0.7869567713729354  0.823956495434801   0.7049301121564585 1.0000   
         C         C         1.0       0.6450062465629851  0.9669495117618113  0.567770149760935  1.0000   
         C         C         1.0       0.6371211193357652  0.9724712925943121  0.5118668726187743 1.0000   
         H         H         1.0       0.6302950410942034  0.9731838316905067  0.5925537220334682 1.0000   
         H         H         1.0       0.660303498402133   0.9805258984103009  0.5759288555637986 1.0000   
         H         H         1.0       0.6360931985476557  0.9933397821265685  0.5052853382579028 1.0000   
         H         H         1.0       0.6536256443429932  0.9696200161816376  0.4863942137484838 1.0000   
         C         C         1.0       0.6734293689057195  0.7452084614048183  0.24206742166294348          1.0000   
         C         C         1.0       0.6516911160406506  0.753430175227187   0.20565555785117587          1.0000   
         H         H         1.0       0.6903981880032467  0.7397169484512947  0.22195348636089168          1.0000   
         H         H         1.0       0.6669138803952867  0.7294183793845207  0.2646447919968083 1.0000   
         H         H         1.0       0.6370401438414525  0.7654262080570774  0.21921749785550937          1.0000   
         H         H         1.0       0.6614798743381771  0.7631649678043795  0.1770792841500044 1.0000   
         C         C         1.0       0.5704992905715079  0.7872936551687327  0.4824626605954957 1.0000   
         C         C         1.0       0.5709796791162226  0.7948331215712043  0.5363581623692993 1.0000   
         H         H         1.0       0.5892323732967287  0.7805487910342144  0.4710065592831897 1.0000   
         H         H         1.0       0.5656221337066873  0.803743675873977   0.4638036486372151 1.0000   
         H         H         1.0       0.5741869341039322  0.7776817177115535  0.5555165547606434 1.0000   
         H         H         1.0       0.5534482120644324  0.8040081290567157  0.5522508246603713 1.0000   
         C         C         1.0       0.058478373469130845          0.8568784649418658 0.4225737168110083 1.0000   
         C         C         1.0       0.07408384679176214           0.8393836522569013 0.389821752898598  1.0000   
         H         H         1.0       0.07246083060414919           0.8676797413170033 0.44249228523267503          1.0000   
         H         H         1.0       0.04849801955833288           0.8473554738446766 0.4533546325551569 1.0000   
         H         H         1.0       0.08538950828160609           0.8279584484505466 0.41648408587371993          1.0000   
         H         H         1.0       0.08524541501635974           0.852921455419222  0.3703606221420467 1.0000   
         C         C         1.0       0.8697800831462857  0.9483347444517102  0.6189815202613251 1.0000   
         C         C         1.0       0.8580372295972676  0.9293506169448169  0.5795548421559095 1.0000   
         H         H         1.0       0.8546038357003997  0.9584334809235745  0.6394184843186096 1.0000   
         H         H         1.0       0.8782632509660013  0.9651766967731116  0.6000164021573854 1.0000   
         H         H         1.0       0.8373372748618064  0.9268288559213348  0.5822200407667931 1.0000   
         H         H         1.0       0.864066829322944   0.9113457012027872  0.592379594780825  1.0000   
         C         C         1.0       0.9921568434695018  0.8303644949216105  0.147749233780891  1.0000   
         C         C         1.0       0.9978660386470343  0.8358553111031276  0.0925981125728712 1.0000   
         H         H         1.0       0.974555143095225   0.8196708384725288  0.15072597238586005          1.0000   
         H         H         1.0       0.008421639419336602          0.8181558972331622 0.1559552850321635 1.0000   
         H         H         1.0       0.004293031151205495          0.8178830453434749 0.07486159618710012          1.0000   
         H         H         1.0       0.014645641639009277          0.8468846443985376 0.09025746484733577          1.0000   
         C         C         1.0       0.03533158852686036           0.011938510457205842         0.18175829556174336          1.0000   
         C         C         1.0       0.0074303171258118805         0.007251839719203623         0.18933606264645267          1.0000   
         H         H         1.0       0.04477219868715232           0.010634988735888529         0.21535955672060542          1.0000   
         H         H         1.0       0.03796864391639887           0.03242469464678743          0.17453229848719565          1.0000   
         H         H         1.0       0.9977506147921702  0.00734912257382625           0.1550592133307942 1.0000   
         H         H         1.0       0.9992625579803279  0.024144143317005762         0.2103738665896831 1.0000   
         C         C         1.0       0.7824790577568106  0.8893694124492028  0.38074551334602647          1.0000   
         C         C         1.0       0.7933367427944503  0.9005756164310971  0.33226793428985174          1.0000   
         H         H         1.0       0.7821011543679858  0.9041204938623951  0.411396893971258  1.0000   
         H         H         1.0       0.7958746455225428  0.8768694434334822  0.4024941045094973 1.0000   
         H         H         1.0       0.7958442374308456  0.8848073237617862  0.3046873953581151 1.0000   
         H         H         1.0       0.7780475311241504  0.9136488853852239  0.31501765522755143          1.0000   
         C         C         1.0       0.4137162022121737  0.314535347391981   0.5200952514992749 1.0000   
         C         C         1.0       0.41016668602192147           0.2863164760197157 0.5209646310096507 1.0000   
         H         H         1.0       0.4251751184836431  0.3186881812321025  0.48682109564432563          1.0000   
         H         H         1.0       0.39571370290127117           0.3226949038731963 0.5141775890243777 1.0000   
         H         H         1.0       0.3958956777039737  0.28037164628409067           0.5474057776260076 1.0000   
         H         H         1.0       0.42734819174325217           0.27646716346866584          0.5367620076847276 1.0000   
         C         C         1.0       0.4944317616015848  0.22376132817489616           0.01969167925361681          1.0000   
         C         C         1.0       0.5121680073457358  0.23882142938628728           0.988258862632648  1.0000   
         H         H         1.0       0.5017786882238272  0.20720402032374802           0.03756943877318575          1.0000   
         H         H         1.0       0.4791109610385448  0.21565218708688838           0.994946426670185  1.0000   
         H         H         1.0       0.5225202527155036  0.22673654083869071           0.9595616742818898 1.0000   
         H         H         1.0       0.5272411991386099  0.24490952233343444           0.013155499477105925         1.0000   
         C         C         1.0       0.5679257741050867  0.32937763281483934           0.5762639777997421 1.0000   
         C         C         1.0       0.5696084162197862  0.3074995618369483  0.5400365058639922 1.0000   
         H         H         1.0       0.5839177227825578  0.3291740791470978  0.6032715390288842 1.0000   
         H         H         1.0       0.5738712735176325  0.347284671523039   0.5585139011611342 1.0000   
         H         H         1.0       0.5861128652287838  0.30936903728997733           0.5163249556568059 1.0000   
         H         H         1.0       0.5532591841940953  0.3074899402242385  0.5154761453490455 1.0000   
         C         C         1.0       0.4714906072443865  0.4302116808915345  0.9251836708291149 1.0000   
         C         C         1.0       0.4919780165195266  0.4437004434640182  0.8967586192376349 1.0000   
         H         H         1.0       0.4543312219350247  0.4402699631886262  0.9118819895257753 1.0000   
         H         H         1.0       0.47129115068311744           0.4347551490976919 0.9643251742717671 1.0000   
         H         H         1.0       0.49641795625515595           0.4331227726024972 0.8627243710214479 1.0000   
         H         H         1.0       0.4843377647622578  0.46147307079644595           0.8807635448599758 1.0000   
         C         C         1.0       0.4891370004312178  0.46224892595248673           0.7498904297931939 1.0000   
         C         C         1.0       0.5041636328704603  0.4764166965899824  0.7104023389522064 1.0000   
         H         H         1.0       0.46993989664257385           0.4722976658714038 0.7525955749524867 1.0000   
         H         H         1.0       0.4981848049636552  0.462752282203189   0.788030661891499  1.0000   
         H         H         1.0       0.5054306920984589  0.49637396205578893           0.7192664047748458 1.0000   
         H         H         1.0       0.491057868170689   0.47504859748795447           0.6773231255176038 1.0000   
         C         C         1.0       0.1440138231273784  0.22629777031574855           0.20605197438793982          1.0000   
         C         C         1.0       0.12691035900571512           0.2424086255025507 0.2398882805748984 1.0000   
         H         H         1.0       0.1351245450977362  0.20859281801090876           0.19801135286356855          1.0000   
         H         H         1.0       0.15947269689390606           0.2209306191873555 0.23037005164073315          1.0000   
         H         H         1.0       0.10979342285245121           0.24798144136269673          0.21804168361998702          1.0000   
         H         H         1.0       0.11967160954907195           0.22929798791985978          0.26841121725264566          1.0000   
         C         C         1.0       0.20747326583749118           0.26893201073103384          0.6809218173974599 1.0000   
         C         C         1.0       0.2180979454251094  0.29476486873940605           0.6695971412722517 1.0000   
         H         H         1.0       0.18584935380412826           0.27005396180503505          0.6839820940505499 1.0000   
         H         H         1.0       0.20976916204136817           0.25678187798038515          0.6491956692852499 1.0000   
         H         H         1.0       0.2385783674778832  0.29282309800122935           0.659981751529586  1.0000   
         H         H         1.0       0.21842076556760998           0.3058709315865938 0.7038126216048461 1.0000   
         C         C         1.0       0.19903389102277308           0.3740600762122526 0.14119384623565456          1.0000   
         C         C         1.0       0.1980029341583171  0.3997836748416923  0.11328180610670269          1.0000   
         H         H         1.0       0.2168175603892094  0.37186394080815655           0.1626988099569031 1.0000   
         H         H         1.0       0.18525603598794327           0.3753595874683306 0.17281150943131487          1.0000   
         H         H         1.0       0.21385329680036996           0.3988279081530467 0.08721701304282226          1.0000   
         H         H         1.0       0.20382788987578368           0.41459076352016766          0.14277442245469008          1.0000   
         C         C         1.0       0.07000069079781185           0.3000952590576976 0.9422638809838998 1.0000   
         C         C         1.0       0.05647304702397439           0.30026233212860803          0.9924095727966659 1.0000   
         H         H         1.0       0.06832694232716185           0.32070953731482293          0.927139256631763  1.0000   
         H         H         1.0       0.06104777008893445           0.28574166261976486          0.9172716787113366 1.0000   
         H         H         1.0       0.039122605084296616          0.3097545405987449 0.9857755467785467 1.0000   
         H         H         1.0       0.06933980777376973           0.3114615562420349 0.016494572735460844         1.0000   
         C         C         1.0       0.3356012377138825  0.2930353565330617  0.9467186005873481 1.0000   
         C         C         1.0       0.35874701110775087           0.2764920300461994 0.9447905339708355 1.0000   
         H         H         1.0       0.3396958475677313  0.30909218249428694           0.9233996116854606 1.0000   
         H         H         1.0       0.3330128834259419  0.299752927808623   0.9854473220306931 1.0000   
         H         H         1.0       0.35662412150715417           0.25980760408475684          0.921004318335479  1.0000   
         H         H         1.0       0.3616297553258502  0.26891447050547734           0.9835237037944498 1.0000   
         C         C         1.0       0.043062306698467556          0.882261003250742  0.5933730236602568 1.0000   
         C         C         1.0       0.05265501392729146           0.8730964973198239 0.6436808226071477 1.0000   
         H         H         1.0       0.0247178180585652  0.8769910996583639  0.584311611007171  1.0000   
         H         H         1.0       0.05397318072867569           0.8723563736448002 0.5630723751362435 1.0000   
         H         H         1.0       0.04389433099102493           0.8546171719446389 0.646744638712532  1.0000   
         H         H         1.0       0.044003072671810035          0.8826295602829628 0.674385493052002  1.0000   
         C         C         1.0       0.17124513185677895           0.0065719331643177 0.6923455799159016 1.0000   
         C         C         1.0       0.17495700809709966           0.030319689223044177         0.725823414094717  1.0000   
         H         H         1.0       0.18071790780293054           0.9891188048654048 0.7090886187088038 1.0000   
         H         H         1.0       0.18109699584534508           0.011982576112750776         0.6586127607785477 1.0000   
         H         H         1.0       0.1955576407238848  0.03203424014570655           0.7286425945086167 1.0000   
         H         H         1.0       0.16925619872473222           0.047770208584182905         0.7067296730768486 1.0000   
         C         C         1.0       0.08925750685640478           0.9449918212954928 0.28006910717263345          1.0000   
         C         C         1.0       0.11786278096713496           0.9453170130688492 0.2704410490775444 1.0000   
         H         H         1.0       0.07962961052493629           0.9471473420225315 0.2446737177760641 1.0000   
         H         H         1.0       0.08307633038967666           0.9250796921633426 0.28957099009583015          1.0000   
         H         H         1.0       0.12406545164148274           0.9273173379244942 0.2881858558079019 1.0000   
         H         H         1.0       0.12866098161917025           0.9599765485664234 0.288941466088472  1.0000   
         C         C         1.0       0.9586032283074453  0.035127025142131174         0.2914209598048103 1.0000   
         C         C         1.0       0.9330088698825407  0.04227666465016888           0.31159645272614733          1.0000   
         H         H         1.0       0.9658595712070264  0.04895343900215332           0.2650373035180327 1.0000   
         H         H         1.0       0.9563462177726552  0.016983739391389197         0.27232109577665037          1.0000   
         H         H         1.0       0.9211285110719752  0.047962572910438706         0.2804459557457359 1.0000   
         H         H         1.0       0.9328741059002928  0.057941530954411125         0.3366054816467298 1.0000   
         C         C         1.0       0.9735904562082223  0.023497598077790727         0.7517315701189423 1.0000   
         C         C         1.0       0.9996268372058598  0.02987702124577485           0.7707731545046792 1.0000   
         H         H         1.0       0.9699738720171736  0.027550536469072018         0.7108878142722445 1.0000   
         H         H         1.0       0.9589685659100983  0.03519915884172131           0.7714824334237476 1.0000   
         H         H         1.0       0.002265371164065888          0.021960360688622282         0.8092748425883821 1.0000   
         H         H         1.0       0.0020562939339505704         0.04960865388197222          0.7767752974210379 1.0000   
         C         C         1.0       0.05787498333117003           0.16378536061267684          0.4749834880668732 1.0000   
         C         C         1.0       0.028371339737970347          0.16234521394788373          0.47257770158515144          1.0000   
         H         H         1.0       0.0669906880324509  0.1705174962051949  0.4412534876281641 1.0000   
         H         H         1.0       0.06368175827667533           0.14417792574206859          0.4785666894976774 1.0000   
         H         H         1.0       0.019285256260231698          0.15810156302773556          0.5106277119365754 1.0000   
         H         H         1.0       0.02274026276039387           0.1455928037579088 0.44875612229115175          1.0000   
         C         C         1.0       0.09891784098243872           0.21552591902608137          0.3950429089777162 1.0000   
         C         C         1.0       0.12473340464003098           0.22779257099839084          0.38912522591352866          1.0000   
         H         H         1.0       0.0989871373973764  0.20404111807204123           0.42833464117930214          1.0000   
         H         H         1.0       0.08433101108731916           0.22888688382697844          0.40167101870405036          1.0000   
         H         H         1.0       0.12094837104228989           0.24627457409737447          0.3685185653098302 1.0000   
         H         H         1.0       0.137675149991153   0.21545677612447742           0.3706614614347619 1.0000   
         C         C         1.0       0.15052585863250226           0.14701540505190913          0.9633928322937148 1.0000   
         C         C         1.0       0.1510721259195693  0.12637036589049427           0.9244371500699237 1.0000   
         H         H         1.0       0.1639656443551175  0.16241272380859292           0.9581978706643304 1.0000   
         H         H         1.0       0.1565657482520561  0.1384684555032006  0.9993599117366085 1.0000   
         H         H         1.0       0.13498527766834192           0.11256987575175581          0.9261639839221125 1.0000   
         H         H         1.0       0.16777405508755355           0.11357050611484705          0.9295758631066025 1.0000   
         C         C         1.0       0.2648687683045347  0.13767934132529686           0.8329215114700765 1.0000   
         C         C         1.0       0.26768615698885734           0.14081886382977102          0.7772291160302498 1.0000   
         H         H         1.0       0.2808253395305444  0.12677546809768608           0.8522026037494358 1.0000   
         H         H         1.0       0.24949447507645772           0.12417951523320722          0.8395187833416221 1.0000   
         H         H         1.0       0.27890463147542216           0.12450932798622198          0.7633060320354864 1.0000   
         H         H         1.0       0.2815191896632858  0.15543256364621943           0.7733085020389733 1.0000   
         C         C         1.0       0.06750749425296533           0.3400954864442193 0.6225621878415961 1.0000   
         C         C         1.0       0.07389565635968377           0.32764287658351166          0.6713673248394528 1.0000   
         H         H         1.0       0.05562682839560286           0.3578868265191477 0.62940222533822   1.0000   
         H         H         1.0       0.0533429029968748  0.32906792685637587           0.6020250129139724 1.0000   
         H         H         1.0       0.055490823741134045          0.32713477178719685          0.6922578076031044 1.0000   
         H         H         1.0       0.0868521591615963  0.3419413612364605  0.6920253385330668 1.0000   
         C         C         1.0       0.11616436088226532           0.09221148832285982          0.5593140681694505 1.0000   
         C         C         1.0       0.11517198381097873           0.0999445568317806 0.5035911278353664 1.0000   
         H         H         1.0       0.12630768664484973           0.0752370873446184 0.5645667824513155 1.0000   
         H         H         1.0       0.09685434247481306           0.08735353337975779          0.5698025742922109 1.0000   
         H         H         1.0       0.11004515184783638           0.12005089484521966          0.5017673020398369 1.0000   
         H         H         1.0       0.13459496597075515           0.10277887497843298          0.49007537480194113          1.0000

