data_0
_chemical_formula_sum                   'C2400 H1920'
_cell_length_a                          56.29737791791872
_cell_length_b                          56.311953997421426
_cell_length_c                          65.73619189429616
_cell_angle_alpha                       89.75026343143978
_cell_angle_beta                        90.59253347157536
_cell_angle_gamma                       119.75438505412512
_space_group_name_H-M_alt               'P 1'
_space_group_IT_number                  1
loop_
  _space_group_symop_operation_xyz
         'x, y, z' 
loop_
  _atom_site_type_symbol
  _atom_site_label
  _atom_site_symmetry_multiplicity
  _atom_site_fract_x
  _atom_site_fract_y
  _atom_site_fract_z
  _atom_site_occupancy
         C         C         1.0       0.03704835133425774           0.23867269330564547          0.01789522264301809          1.0000   
         C         C         1.0       0.04867838762250625           0.22619639049323878          0.02895008466388922          1.0000   
         C         C         1.0       0.04570855130248481           0.20118243841934239          0.023730544431435473         1.0000   
         C         C         1.0       0.03246039916550655           0.188694447992926  0.005414680186510991         1.0000   
         C         C         1.0       0.02162862343334032           0.20226393779567362          0.9933501895176131 1.0000   
         C         C         1.0       0.023773842601980347          0.22652399467663298          0.9999703161161047 1.0000   
         H         H         1.0       0.061038280722795206          0.23679370485700751          0.04184198003595824          1.0000   
         H         H         1.0       0.057490022892152624          0.19292222932851716          0.0330992796819978 1.0000   
         H         H         1.0       0.015345419244626105          0.19491652313628366          0.9773147899184075 1.0000   
         H         H         1.0       0.018617229206144278          0.23813415328147594          0.9885618715677961 1.0000   
         C         C         1.0       0.4796270757667391  0.12109659194715498           0.9680977099931483 1.0000   
         C         C         1.0       0.009120273572606353          0.1405559815991143 0.9828323180931496 1.0000   
         C         C         1.0       0.014699828380563874          0.1238122323506209 0.9703852655832532 1.0000   
         C         C         1.0       0.5034968662193743  0.09929651009607203           0.943486074441668  1.0000   
         C         C         1.0       0.4758086756679517  0.08887591786367564           0.9422348506536652 1.0000   
         C         C         1.0       0.46449474440323485           0.1006915613062946 0.9537783613423739 1.0000   
         C         C         1.0       0.03231981630148871           0.16111809382981673          0.9985933263020125 1.0000   
         C         C         1.0       0.02510391241694206           0.14000804507396217          0.016582174011621792         1.0000   
         C         C         1.0       0.0342977610858565  0.12179900349340674           0.015065241618328683         1.0000   
         C         C         1.0       0.025839589025944402          0.10103486162130058          0.029958745762448433         1.0000   
         C         C         1.0       0.007392544381736399          0.09842930458926687          0.045480772515443406         1.0000   
         C         C         1.0       0.9996106541433823  0.11729986240254762           0.04656829601701966          1.0000   
         C         C         1.0       0.0067868380081231704         0.1367219727030069 0.03148768614752481          1.0000   
         C         C         1.0       0.06545561638623447           0.18416417822692915          0.9688373814420772 1.0000   
         C         C         1.0       0.09050404945997687           0.19719502738839706          0.960110226076277  1.0000   
         C         C         1.0       0.11330908279286905           0.20026560544323757          0.9697950002186762 1.0000   
         C         C         1.0       0.10951549688791455           0.18938286150231015          0.9893991247079023 1.0000   
         C         C         1.0       0.08492534591066293           0.1787846229693103 0.9988519507940927 1.0000   
         C         C         1.0       0.06158481544325326           0.17488909023756188          0.9890335730545377 1.0000   
         C         C         1.0       0.1425358873351836  0.21304116578462115           0.9585981292802535 1.0000   
         C         C         1.0       0.12258381623636867           0.14221376848311099          0.9205643369016281 1.0000   
         C         C         1.0       0.1196590694084438  0.16354135428207903           0.9135019946445477 1.0000   
         C         C         1.0       0.12636441041839666           0.1861464618217112 0.9254259081459988 1.0000   
         C         C         1.0       0.13532650806604737           0.18717601660829414          0.944713568465084  1.0000   
         C         C         1.0       0.13580419514740183           0.16420990371883407          0.952563742131319  1.0000   
         C         C         1.0       0.12903309886887737           0.14180155042968115          0.9410996743274785 1.0000   
         C         C         1.0       0.17006709844846343           0.22316018302931573          0.9723558728967686 1.0000   
         C         C         1.0       0.173725553573942   0.236355980467831   0.9907889312721397 1.0000   
         C         C         1.0       0.19699172808484003           0.24479435881329273          0.0023438031704909055        1.0000   
         C         C         1.0       0.21965558353800305           0.24451070446575685          0.9938058017819135 1.0000   
         C         C         1.0       0.21865821396606763           0.23668563708188753          0.9742735661977988 1.0000   
         C         C         1.0       0.19375521291246883           0.22553842170143318          0.9641889063365255 1.0000   
         C         C         1.0       0.1691763679601682  0.2501670567631389  0.932639866792929  1.0000   
         C         C         1.0       0.17910596045163868           0.277261111270261  0.9262555163455461 1.0000   
         C         C         1.0       0.1719676978170478  0.29458358251404687           0.9351683930537583 1.0000   
         C         C         1.0       0.15548611463227835           0.2864491812962747 0.9523269473874624 1.0000   
         C         C         1.0       0.14520187758381642           0.25972068711931084          0.9582396227035476 1.0000   
         C         C         1.0       0.15148293291074452           0.24176032692408553          0.9490223725888398 1.0000   
         H         H         1.0       0.4680571060349865  0.1277269244232181  0.9775357047237055 1.0000   
         H         H         1.0       0.03471947943255077           0.12575860923517104          0.9698899195168631 1.0000   
         H         H         1.0       0.0014086530156658377         0.09410604955667867          0.9472576714897809 1.0000   
         H         H         1.0       0.442259428970449   0.09217569832881377           0.9545726997569883 1.0000   
         H         H         1.0       0.047372388857297734          0.12014656243930484          0.004341319359557349         1.0000   
         H         H         1.0       0.03318723297792795           0.08606371507765927          0.02978333568295485          1.0000   
         H         H         1.0       0.48170297062342227           0.10617513308467502          0.05183960723503575          1.0000   
         H         H         1.0       0.4912253208679207  0.1370619488627026  0.023664127307796226         1.0000   
         H         H         1.0       0.04781692177447592           0.18231439125403007          0.9617794687530864 1.0000   
         H         H         1.0       0.09347668686808533           0.20572417659173478          0.9447343369732952 1.0000   
         H         H         1.0       0.12623993637016384           0.18952428456922552          0.9986454554297512 1.0000   
         H         H         1.0       0.083755461265686   0.1709125829478419  0.015355353050297513         1.0000   
         H         H         1.0       0.10947873280650224           0.16113469991191084          0.8988866055559996 1.0000   
         H         H         1.0       0.12193220244587742           0.2019446695124338 0.920532272408109  1.0000   
         H         H         1.0       0.14148402270215313           0.16197334717867792          0.9678888006132071 1.0000   
         H         H         1.0       0.1306901730025047  0.1250016056210348  0.9481770636148487 1.0000   
         H         H         1.0       0.1576515944670165  0.23873981588275814           0.9980859348308487 1.0000   
         H         H         1.0       0.1980159210718072  0.2517930789443237  0.018206312933552325         1.0000   
         H         H         1.0       0.23583763823949483           0.23630840630888028          0.9685652008619698 1.0000   
         H         H         1.0       0.19459803719061533           0.2185830615726623 0.9499490182383983 1.0000   
         H         H         1.0       0.17678410940470796           0.2372506281204513 0.9255597508293738 1.0000   
         H         H         1.0       0.1982920044866515  0.2863833868126945  0.9172690855016987 1.0000   
         H         H         1.0       0.14897511599516297           0.2998162506745299 0.9594141292750137 1.0000   
         H         H         1.0       0.13264182855940865           0.253622021052479  0.9714583396008267 1.0000   
         C         C         1.0       0.3037831065249618  0.9989745762537476  0.859883993816143  1.0000   
         C         C         1.0       0.30362563722002517           0.4948946450791095 0.853915582854435  1.0000   
         C         C         1.0       0.3239182329522716  0.48915411622403804           0.8575617013983279 1.0000   
         C         C         1.0       0.3413682868246845  0.5005567962408503  0.8745361900461078 1.0000   
         C         C         1.0       0.3441050573193405  0.0038728888942405402        0.8753015925866126 1.0000   
         C         C         1.0       0.32295218698030437           0.009965610534137742         0.8743393211475319 1.0000   
         H         H         1.0       0.29223727918872716           0.48512769023526897          0.8397114169657566 1.0000   
         H         H         1.0       0.33031203696495604           0.4778417199608032 0.847564908914977  1.0000   
         H         H         1.0       0.3587726936482067  0.013215748847001186         0.8883595342909216 1.0000   
         H         H         1.0       0.3207183012985382  0.022075550143406564         0.8855305399835978 1.0000   
         C         C         1.0       0.4076022454367473  0.03169872686614149           0.870596399244528  1.0000   
         C         C         1.0       0.3974792479623672  0.0038402752777073907        0.8736212775584987 1.0000   
         C         C         1.0       0.41204287952594715           0.995762746253255  0.8860372066320982 1.0000   
         C         C         1.0       0.43479409531963564           0.014239501217976989         0.8968772158625087 1.0000   
         C         C         1.0       0.443374878020029   0.041528141804772906         0.8947929826961253 1.0000   
         C         C         1.0       0.42789062774230635           0.049341173735553925         0.8826669543937583 1.0000   
         C         C         1.0       0.3659956396132859  0.4940276128800375  0.8782500043175793 1.0000   
         C         C         1.0       0.3842958927376052  0.49890321641530616           0.8583536668869979 1.0000   
         C         C         1.0       0.4025369327434541  0.48908855738042867           0.8584193395022728 1.0000   
         C         C         1.0       0.4195508305266648  0.49341859172391744           0.842642151465733  1.0000   
         C         C         1.0       0.41083842340191334           0.986455393140654  0.8045836307139034 1.0000   
         C         C         1.0       0.39561920536647266           0.9989300360791004 0.8066789644341026 1.0000   
         C         C         1.0       0.38195932875929234           0.9970668915752672 0.8241742246906958 1.0000   
         C         C         1.0       0.3399572096898149  0.4566395107723118  0.9059975490943878 1.0000   
         C         C         1.0       0.3317246157610136  0.4318838247176111  0.9141615726258309 1.0000   
         C         C         1.0       0.32837176345509395           0.40999295614058884          0.9023544451899052 1.0000   
         C         C         1.0       0.3379167584021469  0.4163996498742489  0.8825851781980808 1.0000   
         C         C         1.0       0.34785386216787845           0.4423087778402028 0.8742935755001071 1.0000   
         C         C         1.0       0.3507832495984844  0.4636243127419195  0.8863224589385174 1.0000   
         C         C         1.0       0.31633833605291    0.379331292212933   0.9124297756753185 1.0000   
         C         C         1.0       0.39035858108690613           0.3986877026687145 0.9492498960699745 1.0000   
         C         C         1.0       0.36764250285603667           0.39696975718990946          0.9580075169151273 1.0000   
         C         C         1.0       0.34279989673965744           0.38985098925490635          0.9470800444207137 1.0000   
         C         C         1.0       0.3420050752966696  0.3855594561783591  0.9266436168318867 1.0000   
         C         C         1.0       0.36482833828890854           0.3881389989515126 0.9179902256725888 1.0000   
         C         C         1.0       0.38749056524710473           0.3931054094963166 0.9288438643115728 1.0000   
         C         C         1.0       0.3080526466277145  0.3527562577393246  0.8989793391578096 1.0000   
         C         C         1.0       0.2938915442841476  0.3484038754141929  0.8805131525696569 1.0000   
         C         C         1.0       0.2836512321143162  0.3250928411887493  0.8695119078517819 1.0000   
         C         C         1.0       0.28534101538909273           0.3037905093598572 0.8782610152230154 1.0000   
         C         C         1.0       0.3007027627223203  0.30770273422907995           0.8952520270818749 1.0000   
         C         C         1.0       0.31069773299906084           0.3319386117018336 0.9058872663041335 1.0000   
         C         C         1.0       0.2776495669971131  0.3531922053042911  0.9392090764627103 1.0000   
         C         C         1.0       0.2532051202623524  0.34691344019744424           0.9467099882151138 1.0000   
         C         C         1.0       0.23636399750570802           0.3542638363392017 0.9363127662717765 1.0000   
         C         C         1.0       0.24431197546686986           0.3691748628674591 0.9187961560968687 1.0000   
         C         C         1.0       0.2703205899971134  0.37770183075741265           0.9119628577730339 1.0000   
         C         C         1.0       0.28717962293950655           0.3700397317777742 0.9218171532622799 1.0000   
         H         H         1.0       0.3948286370526833  0.037211054919773424         0.8610592553082639 1.0000   
         H         H         1.0       0.3886633531637019  0.48197742558689    0.9116992229128086 1.0000   
         H         H         1.0       0.445827882280239   0.00816385288470751           0.906486926262107  1.0000   
         H         H         1.0       0.4314398918995722  0.07017605907947823           0.8828093363712152 1.0000   
         H         H         1.0       0.40376643317533417           0.4773198099966734 0.8710731955583878 1.0000   
         H         H         1.0       0.43583559798619215           0.4887102155846531 0.8457302146123046 1.0000   
         H         H         1.0       0.3973526438872896  0.0140179974111588  0.7950590044784926 1.0000   
         H         H         1.0       0.3691117845252344  0.006966314399649169         0.8242506656439165 1.0000   
         H         H         1.0       0.34123339023658783           0.4724746027430329 0.915370581605345  1.0000   
         H         H         1.0       0.323327739383899   0.4277724025533908  0.9293512831829022 1.0000   
         H         H         1.0       0.33831504094341736           0.40116972116712213          0.8717694881346542 1.0000   
         H         H         1.0       0.3539085449062874  0.4450292554921178  0.8586688131909295 1.0000   
         H         H         1.0       0.3673261262584694  0.39960401059292217           0.9746109828834639 1.0000   
         H         H         1.0       0.32522306770946546           0.3886637172760378 0.9542082847211503 1.0000   
         H         H         1.0       0.3673743561645039  0.38734638660152443           0.9020599968241899 1.0000   
         H         H         1.0       0.4053019013517066  0.39422518155652714           0.921751959036375  1.0000   
         H         H         1.0       0.2896623213104855  0.3645250414369925  0.8735917482509867 1.0000   
         H         H         1.0       0.27549486376313576           0.3258930281235171 0.8557763285133876 1.0000   
         H         H         1.0       0.3019131685639838  0.29093779210127574           0.9034604245984453 1.0000   
         H         H         1.0       0.3210176098184557  0.33544372721513355           0.9195986957098454 1.0000   
         H         H         1.0       0.2913134552809875  0.34680788927140477           0.9449345591131343 1.0000   
         H         H         1.0       0.24629631998669446           0.33358276824306904          0.9608059942897345 1.0000   
         H         H         1.0       0.230815435052846   0.3735664947156671  0.9102401027040328 1.0000   
         H         H         1.0       0.27529973754999315           0.3841002155448796 0.896006737508101  1.0000   
         C         C         1.0       0.301970395987352   0.2227711095618955  0.33976243675910983          1.0000   
         C         C         1.0       0.30912034842568253           0.24566741378242893          0.3521391509431058 1.0000   
         C         C         1.0       0.32630720583571327           0.2708002505801715 0.3443508302472237 1.0000   
         C         C         1.0       0.3393742072312331  0.27425120207985626           0.32580068135710466          1.0000   
         C         C         1.0       0.3303052294148856  0.2518648896952493  0.3140436384496846 1.0000   
         C         C         1.0       0.3123103950239234  0.22668399619195317           0.32040762904697423          1.0000   
         H         H         1.0       0.3001416584411994  0.24323499288934117           0.3668636990053855 1.0000   
         H         H         1.0       0.3318073063388831  0.28813256048243086           0.35464348840912957          1.0000   
         H         H         1.0       0.3384203936745425  0.25552951389883766           0.29925220893927384          1.0000   
         H         H         1.0       0.3085919813617737  0.20862149152408424           0.31208306153774895          1.0000   
         C         C         1.0       0.3973237215781889  0.2837881563332024  0.3093167521609933 1.0000   
         C         C         1.0       0.389737915486611   0.30297543360965695           0.30516316953109995          1.0000   
         C         C         1.0       0.4044548297485703  0.32314689699390287           0.29054783033092874          1.0000   
         C         C         1.0       0.4269648849303121  0.3243902728927622  0.28182227058631065          1.0000   
         C         C         1.0       0.43259527407766385           0.30368974872576987          0.28596937448909027          1.0000   
         C         C         1.0       0.4172860390714143  0.283643465310402   0.29920758688605004          1.0000   
         C         C         1.0       0.36752280997683157           0.30227604737528935          0.3196705186830998 1.0000   
         C         C         1.0       0.3859873163161904  0.3161229109288599  0.33925311184333345          1.0000   
         C         C         1.0       0.4031914524175494  0.34357440753454876           0.3399195899473983 1.0000   
         C         C         1.0       0.4183956776052702  0.35659443552370884           0.35731892097119855          1.0000   
         C         C         1.0       0.41587003883860924           0.3406713044688176 0.3743514794597886 1.0000   
         C         C         1.0       0.40047211657032666           0.3127864034282994 0.3728673979460657 1.0000   
         C         C         1.0       0.38725213970540523           0.29990795617922344          0.3551254622984629 1.0000   
         C         C         1.0       0.34216504631252237           0.30882639148982544          0.29058705381660366          1.0000   
         C         C         1.0       0.3291502982129434  0.3194468571179591  0.2805083128749199 1.0000   
         C         C         1.0       0.3235867240049189  0.33821459806728177           0.28979453654152815          1.0000   
         C         C         1.0       0.33276824617147205           0.3449355098230183 0.3092973532831189 1.0000   
         C         C         1.0       0.3471045889090039  0.33519774369719413           0.31958016692078267          1.0000   
         C         C         1.0       0.3540010559329452  0.31863522357391666           0.3096731760873171 1.0000   
         C         C         1.0       0.30662977016464005           0.3505884278485126 0.2782774449312811 1.0000   
         C         C         1.0       0.3770425694741756  0.4070479584429571  0.24299913390319552          1.0000   
         C         C         1.0       0.3567026610800454  0.3840637206746143  0.23466181602446995          1.0000   
         C         C         1.0       0.33242858041062373           0.3663575248851454 0.24604330958978152          1.0000   
         C         C         1.0       0.3302237327279092  0.3725572297692764  0.265545775927868  1.0000   
         C         C         1.0       0.35198866127193457           0.39625664585805837          0.27368542537366025          1.0000   
         C         C         1.0       0.37584971974245696           0.41259925504703676          0.2624653253629958 1.0000   
         C         C         1.0       0.2933865435344687  0.36456316565047    0.2927319891161573 1.0000   
         C         C         1.0       0.2819465980339614  0.3544176570551375  0.31111560401747473          1.0000   
         C         C         1.0       0.2679063507469538  0.3646434689844934  0.3214503791258934 1.0000   
         C         C         1.0       0.270068226820062   0.389300079491712   0.31491090858994   1.0000   
         C         C         1.0       0.2846644210991733  0.40154295044099825           0.2977480152068088 1.0000   
         C         C         1.0       0.29219296403841843           0.38746761319356476          0.285997724179392  1.0000   
         C         C         1.0       0.2658903984762099  0.3319440819798808  0.2513836070241481 1.0000   
         C         C         1.0       0.24139066096401324           0.31038935379577465          0.24405952918619203          1.0000   
         C         C         1.0       0.23053900361815882           0.2853842485256356 0.25277396557946513          1.0000   
         C         C         1.0       0.24277040491413654           0.2807739367274146 0.2687166462796054 1.0000   
         C         C         1.0       0.2664520190103276  0.30117023437973506           0.27675730999196635          1.0000   
         C         C         1.0       0.27948025519069475           0.3275115444244776 0.26740240225463163          1.0000   
         H         H         1.0       0.38687883076101576           0.268207953723923  0.3195084839422135 1.0000   
         H         H         1.0       0.3996950614387805  0.3397363011117098  0.2881811210980752 1.0000   
         H         H         1.0       0.4389368407055679  0.34054999572238126           0.27018948808360294          1.0000   
         H         H         1.0       0.42132175993210547           0.267325129665421  0.3014856891434144 1.0000   
         H         H         1.0       0.40699068806864597           0.3578477160732648 0.32769732223322245          1.0000   
         H         H         1.0       0.43021706950788524           0.3786123508398123 0.359210366313588  1.0000   
         H         H         1.0       0.3999319064425754  0.29973684933735234           0.3854273875388073 1.0000   
         H         H         1.0       0.37861098680405686           0.2789985960395828 0.3553224526182688 1.0000   
         H         H         1.0       0.34432665000645096           0.29255353498430786          0.2834191915940589 1.0000   
         H         H         1.0       0.32352262077806193           0.31418934408902766          0.264922270902469  1.0000   
         H         H         1.0       0.3317355074177741  0.36187692949972594           0.31622243023426483          1.0000   
         H         H         1.0       0.35874248325535574           0.3442163353089634 0.3343975056051529 1.0000   
         H         H         1.0       0.35913680984902324           0.37982209000706985          0.21949147538062505          1.0000   
         H         H         1.0       0.3182692401227352  0.3469836961172128  0.2386288886374251 1.0000   
         H         H         1.0       0.34979227070471436           0.3997282424079363 0.28841821427726944          1.0000   
         H         H         1.0       0.3915092018996404  0.42907935904049116           0.271803070032462  1.0000   
         H         H         1.0       0.2811032271795998  0.33613620219081236           0.3174723872332024 1.0000   
         H         H         1.0       0.25712294684669174           0.3565713458642362 0.3356942449951042 1.0000   
         H         H         1.0       0.28835003307519347           0.4204527534438467 0.2917921417506794 1.0000   
         H         H         1.0       0.2988580734855213  0.39504903370520594           0.27146783081242454          1.0000   
         H         H         1.0       0.27338219747568593           0.3513611163237767 0.2442575996737139 1.0000   
         H         H         1.0       0.23055038170398606           0.31413436365954467          0.23251534662068035          1.0000   
         H         H         1.0       0.23315472926120556           0.2610955012212418 0.27581247692735494          1.0000   
         H         H         1.0       0.2752879365360855  0.29571837776395987           0.28915944673197563          1.0000   
         C         C         1.0       0.009127913575730482          0.20509910937551623          0.19708497473904932          1.0000   
         C         C         1.0       0.023061680613274287          0.2231512232973872 0.18199606946672528          1.0000   
         C         C         1.0       0.0332386122974928  0.2504725550213073  0.1854666499856707 1.0000   
         C         C         1.0       0.02829295432038709           0.2605050853458236 0.20430031384050315          1.0000   
         C         C         1.0       0.01751861586276565           0.24144855905198667          0.21977911042903045          1.0000   
         C         C         1.0       0.007432372404764715          0.2138284098300578 0.21637745479693135          1.0000   
         H         H         1.0       0.025440676618588204          0.21661897173657316          0.16691973139157967          1.0000   
         H         H         1.0       0.044263924564934894          0.2644889496896372 0.17308510770747124          1.0000   
         H         H         1.0       0.014520138331853573          0.2477806724134548 0.23375527307734956          1.0000   
         H         H         1.0       0.9949760746004033  0.19912128579818922           0.22660610497297104          1.0000   
         C         C         1.0       0.48568993943692435           0.27384196126723653          0.21852750879472055          1.0000   
         C         C         1.0       0.018180690299363294          0.294090480226521  0.2243844293974226 1.0000   
         C         C         1.0       0.029614636972462152          0.3132431115069205 0.23944165025118178          1.0000   
         C         C         1.0       0.5030033622378093  0.31699621325207206           0.24346057681399433          1.0000   
         C         C         1.0       0.4745705632812863  0.29932842024647527           0.24109186997016477          1.0000   
         C         C         1.0       0.4658338229853621  0.27616803739853985           0.22951076225704808          1.0000   
         C         C         1.0       0.036332094196841275          0.29192996501109736          0.2061649249675348 1.0000   
         C         C         1.0       0.02938532036869117           0.30461296417825917          0.18630345836226675          1.0000   
         C         C         1.0       0.041707568572656006          0.33231276049641284          0.18697555079877345          1.0000   
         C         C         1.0       0.04056689306912904           0.3471682415103741 0.1711447877002232 1.0000   
         C         C         1.0       0.02527227893477271           0.33338807250864233          0.15417504888163025          1.0000   
         C         C         1.0       0.011234504092663047          0.30517534536239005          0.15447877729880385          1.0000   
         C         C         1.0       0.014051073186820926          0.2906959769751396 0.16989118261306116          1.0000   
         C         C         1.0       0.07479078333083362           0.29756877927291625          0.23142150524899613          1.0000   
         C         C         1.0       0.10205917504512359           0.30942022685213216          0.23704405245527543          1.0000   
         C         C         1.0       0.12254888990796511           0.32762620566461564          0.2251468986082083 1.0000   
         C         C         1.0       0.11583429374523865           0.33321729126005534          0.20608608403034717          1.0000   
         C         C         1.0       0.08891417172879919           0.322203586813742  0.20066467610022745          1.0000   
         C         C         1.0       0.06816686962032555           0.304395850249724  0.21278028306357225          1.0000   
         C         C         1.0       0.15383915322349587           0.34042101694919596          0.23207073298900793          1.0000   
         C         C         1.0       0.16970209214278872           0.40839055216711345          0.27035074428226813          1.0000   
         C         C         1.0       0.1593074251678326  0.38343321618282056           0.2792584957245222 1.0000   
         C         C         1.0       0.15186824187299588           0.3612640056362731 0.2669497071308889 1.0000   
         C         C         1.0       0.15671733408987837           0.3641666656848914 0.2461254005648328 1.0000   
         C         C         1.0       0.15935392465008458           0.38805979733612905          0.23722939157548184          1.0000   
         C         C         1.0       0.16874149794499374           0.4112397257508756 0.24954686384420227          1.0000   
         C         C         1.0       0.17763451505295433           0.35249884592430253          0.21566070665189518          1.0000   
         C         C         1.0       0.17425641976026224           0.3404204127285635 0.19678026593669273          1.0000   
         C         C         1.0       0.1959399407803666  0.3474495700193722  0.18446292997476157          1.0000   
         C         C         1.0       0.22232438510467717           0.36764404214896657          0.18980248051545276          1.0000   
         C         C         1.0       0.22605708143210376           0.3800608110754271 0.209469756996222  1.0000   
         C         C         1.0       0.2037402407023366  0.37291752946352297           0.22180868434180734          1.0000   
         C         C         1.0       0.14842838936020378           0.29156648228539256          0.23201475831669252          1.0000   
         C         C         1.0       0.15302676301154897           0.2718474920691016 0.24066332745624686          1.0000   
         C         C         1.0       0.1716862917814401  0.278313094225492   0.25541453249970303          1.0000   
         C         C         1.0       0.18429030309601888           0.3039435234688926 0.26369314747181516          1.0000   
         C         C         1.0       0.17819812122263487           0.32272470647761675          0.2561695438522533 1.0000   
         C         C         1.0       0.1589455963566704  0.3172859370966625  0.2408188176486217 1.0000   
         H         H         1.0       0.4788907638630833  0.2570171970745887  0.2078043275358944 1.0000   
         H         H         1.0       0.05168166478567375           0.3297182477493801 0.24005440127943442          1.0000   
         H         H         1.0       0.023271290765841522          0.329645512053206  0.26592517053822645          1.0000   
         H         H         1.0       0.44309812740410137           0.26334741836010833          0.22704286759126333          1.0000   
         H         H         1.0       0.050586422393170405          0.3422680923873896 0.20129161080456537          1.0000   
         H         H         1.0       0.04999404411529145           0.36927186986740024          0.1719878021372828 1.0000   
         H         H         1.0       0.0024402111159682245         0.29610117699875377          0.14081501725465143          1.0000   
         H         H         1.0       0.004747016735226096          0.26901146944597204          0.1687707108078151 1.0000   
         H         H         1.0       0.05897258644631732           0.284286116878801  0.24302919642768295          1.0000   
         H         H         1.0       0.10561528851350473           0.30416107094615713          0.25209879396402846          1.0000   
         H         H         1.0       0.1305653390722548  0.3460662287823053  0.1947473203315181 1.0000   
         H         H         1.0       0.08440003925367298           0.324548247572339  0.1853168189068564 1.0000   
         H         H         1.0       0.15593976570881168           0.38100487190191046          0.2957310801551521 1.0000   
         H         H         1.0       0.14108628021090902           0.34008192728341846          0.27309416215529836          1.0000   
         H         H         1.0       0.16495872244988444           0.39188549158294567          0.22087943966140675          1.0000   
         H         H         1.0       0.17694334354911426           0.43128654835565905          0.2427167803859978 1.0000   
         H         H         1.0       0.15545728106286602           0.32467003974599173          0.19170625058116939          1.0000   
         H         H         1.0       0.1946135190108542  0.33699453874536545           0.16977696991981792          1.0000   
         H         H         1.0       0.24704197027178146           0.39350154172581564          0.21473533292141997          1.0000   
         H         H         1.0       0.20959416412555723           0.3852835269945345 0.23531990866238378          1.0000   
         H         H         1.0       0.1333086092555821  0.2861561145473457  0.2195814723285001 1.0000   
         H         H         1.0       0.1423885333652561  0.2511668817152019  0.23389218870353512          1.0000   
         H         H         1.0       0.19786924128066444           0.3099475880372075 0.27577651647811635          1.0000   
         H         H         1.0       0.1873946276190147  0.3410149883937343  0.26468534048998   1.0000   
         C         C         1.0       0.28350274379395446           0.4152839172803015 0.15760376663873132          1.0000   
         C         C         1.0       0.30012642667762124           0.4060928796417839 0.14929860216478874          1.0000   
         C         C         1.0       0.3271646099814451  0.42441387690674437           0.14687131296377437          1.0000   
         C         C         1.0       0.33834127273342823           0.45244536160260557          0.14960241697383214          1.0000   
         C         C         1.0       0.32112855976792204           0.4610245982447757 0.15757236103390035          1.0000   
         C         C         1.0       0.29440559855286746           0.4424490142720453 0.16097802607773687          1.0000   
         H         H         1.0       0.29503234917231186           0.3860043299052353 0.14617739875029415          1.0000   
         H         H         1.0       0.3400696848528322  0.4176175159214988  0.14055596294917966          1.0000   
         H         H         1.0       0.3276559110391138  0.48243365951208117           0.16057557506040557          1.0000   
         H         H         1.0       0.28025752871753706           0.44931443133318055          0.16628482070339265          1.0000   
         C         C         1.0       0.36527760301448536           0.4575972336529355 0.10846547505485231          1.0000   
         C         C         1.0       0.3814637435050242  0.4678704737564338  0.12644927129359732          1.0000   
         C         C         1.0       0.4076980507423152  0.473339354157694   0.12507811515952008          1.0000   
         C         C         1.0       0.41634652329592897           0.4632313225350878 0.10953506479664106          1.0000   
         C         C         1.0       0.40069716291128393           0.45139384094997237          0.09293112407027386          1.0000   
         C         C         1.0       0.3748760133244887  0.44935896290472216           0.09218300798986119          1.0000   
         C         C         1.0       0.36977263733948285           0.4723270513533789 0.14789881284475745          1.0000   
         C         C         1.0       0.3810134263492636  0.4668586840948997  0.16796240872773574          1.0000   
         C         C         1.0       0.3794938018650957  0.4793318045801038  0.18535901677011102          1.0000   
         C         C         1.0       0.39020162478292575           0.47621836074021917          0.2035271222360236 1.0000   
         C         C         1.0       0.39779464637569795           0.45643953717882824          0.20535759679798712          1.0000   
         C         C         1.0       0.3968460648812097  0.44172956857765094           0.18860281704244877          1.0000   
         C         C         1.0       0.38970852446297727           0.4488668810905736 0.17016727714996133          1.0000   
         C         C         1.0       0.36147438123516024           0.006607607951278274         0.13052009740314155          1.0000   
         C         C         1.0       0.37128332109960593           0.03119942537687003          0.12061271458603189          1.0000   
         C         C         1.0       0.3958807794079258  0.052934417424506414         0.1270367378237169 1.0000   
         C         C         1.0       0.4118229268936678  0.049530410008689754         0.1416214522318383 1.0000   
         C         C         1.0       0.40341763592890095           0.024319653421383768         0.14969486360017165          1.0000   
         C         C         1.0       0.3772990680662426  0.002391747859776902         0.14438800112092862          1.0000   
         C         C         1.0       0.40725794071538884           0.08254591700882931          0.11623405651321796          1.0000   
         C         C         1.0       0.4516600358368765  0.060162222217034905         0.07303068309467235          1.0000   
         C         C         1.0       0.42698142212474127           0.058531052626086356         0.0675149918759708 1.0000   
         C         C         1.0       0.4128855319813057  0.06603937851397891           0.08063412126459829          1.0000   
         C         C         1.0       0.42501537831965536           0.07863712914258983          0.09926397293066196          1.0000   
         C         C         1.0       0.4505815492184938  0.08304729417654988           0.10319589500660831          1.0000   
         C         C         1.0       0.4628270457318211  0.07239505443280965           0.09152528975678609          1.0000   
         C         C         1.0       0.4245019469237146  0.10811594372488449           0.1306095626441943 1.0000   
         C         C         1.0       0.4150650919914801  0.10784064811672593           0.1505108813609423 1.0000   
         C         C         1.0       0.42815349889931686           0.13078974760846068          0.16317820181990877          1.0000   
         C         C         1.0       0.45093378041286947           0.15308507629937318          0.15563966482951608          1.0000   
         C         C         1.0       0.46123557647319524           0.1540157853629963 0.1366227668138224 1.0000   
         C         C         1.0       0.44818785259265526           0.1330167054050653 0.12394532042201015          1.0000   
         C         C         1.0       0.3942338394104047  0.11036310454587586           0.09084305336706222          1.0000   
         C         C         1.0       0.3791262471122284  0.12145919655068688           0.08442110242024697          1.0000   
         C         C         1.0       0.35254003884707036           0.10987236717496081          0.09123135019494347          1.0000   
         C         C         1.0       0.34421684115372025           0.09123732053154403          0.10726690190688938          1.0000   
         C         C         1.0       0.36105486036320505           0.08192044200291056          0.11435389367997716          1.0000   
         C         C         1.0       0.38665576229060156           0.09204310450797329          0.10726591175876657          1.0000   
         H         H         1.0       0.34425301257472735           0.45219769997745307          0.10928593292905639          1.0000   
         H         H         1.0       0.42054107919589145           0.4816707463806354 0.13811797829654968          1.0000   
         H         H         1.0       0.43685406907540353           0.46360609634727823          0.11139947235404811          1.0000   
         H         H         1.0       0.3605152793310452  0.4396794187479129  0.07909433563130835          1.0000   
         H         H         1.0       0.37050316249980164           0.4916979835772179 0.1842349337597885 1.0000   
         H         H         1.0       0.3919903231671387  0.48984111362318944           0.2158766828603006 1.0000   
         H         H         1.0       0.4052478849333747  0.4283703976224319  0.18861769108019183          1.0000   
         H         H         1.0       0.3899981526093306  0.43828454691929497           0.1566860000867571 1.0000   
         H         H         1.0       0.3451003778654769  0.49429643962616215           0.12266663322533296          1.0000   
         H         H         1.0       0.3581137269969122  0.033965480165410206         0.10967804171930881          1.0000   
         H         H         1.0       0.4314736423348741  0.0677220616560965  0.14648781690972065          1.0000   
         H         H         1.0       0.41576296437651794           0.018205859294281264         0.15796519185676722          1.0000   
         H         H         1.0       0.4156746717889825  0.04846199958546889           0.05396285972775075          1.0000   
         H         H         1.0       0.39245516800194835           0.059856911889173726         0.07554878536964782          1.0000   
         H         H         1.0       0.4631596802173293  0.09411002011801868           0.11668741785868711          1.0000   
         H         H         1.0       0.9830722006267523  0.07761129832276331           0.1038171365866715 1.0000   
         H         H         1.0       0.39881582042977765           0.08949833454030019          0.15673583795685964          1.0000   
         H         H         1.0       0.4211593678379955  0.12888109097350642           0.1780766686768343 1.0000   
         H         H         1.0       0.4766215440092974  0.1738475131416043  0.13062868663500707          1.0000   
         H         H         1.0       0.4552547081976191  0.13536987976939333           0.10906872511034725          1.0000   
         H         H         1.0       0.41432690930107535           0.11620123473073514          0.08598759066816013          1.0000   
         H         H         1.0       0.3872087090465486  0.13645025272030595           0.07185484221981256          1.0000   
         H         H         1.0       0.323746374645055   0.08464589455270419           0.11293552999689975          1.0000   
         H         H         1.0       0.35748094264831665           0.07057502303463568          0.12748420653714337          1.0000   
         C         C         1.0       0.28191067186689167           0.2575241758102888 0.02614095193882422          1.0000   
         C         C         1.0       0.3015194524928958  0.2551304915526476  0.015137196790129304         1.0000   
         C         C         1.0       0.328050172248322   0.2731373021995026  0.01747729521983728          1.0000   
         C         C         1.0       0.33758974037554396           0.2915190474563135 0.033411122302724715         1.0000   
         C         C         1.0       0.3183619050891517  0.2908568709419419  0.046614728723797086         1.0000   
         C         C         1.0       0.2911113353077281  0.27514233814398126           0.04223904919242103          1.0000   
         H         H         1.0       0.29599310883314184           0.2413664710970597 0.0021833941951243663        1.0000   
         H         H         1.0       0.34192786391705565           0.2716693017651354 0.008254829208346495         1.0000   
         H         H         1.0       0.32325043269784803           0.304443525672971  0.05914178400417849          1.0000   
         H         H         1.0       0.2767704959693453  0.2764279532975341  0.05255724732536565          1.0000   
         C         C         1.0       0.3670355798668856  0.35468633691433726           0.047727629558300885         1.0000   
         C         C         1.0       0.378884825173622   0.33778971788650086           0.05013658304666057          1.0000   
         C         C         1.0       0.40082195878394555           0.34837487704924813          0.06484978295959389          1.0000   
         C         C         1.0       0.4094039201945825  0.37162586763412125           0.07548236426727148          1.0000   
         C         C         1.0       0.39617645136856555           0.38613305697019745          0.07291974956762502          1.0000   
         C         C         1.0       0.37467546146253594           0.37810411390267057          0.05881301324916197          1.0000   
         C         C         1.0       0.36991520174933834           0.3119726779603187 0.03636824586954817          1.0000   
         C         C         1.0       0.38362273391256607           0.32793002225400575          0.01513664212085007          1.0000   
         C         C         1.0       0.41199824412287295           0.3400166659051342 0.011141474722170808         1.0000   
         C         C         1.0       0.4228184597313266  0.3543084986247558  0.9939513907771573 1.0000   
         C         C         1.0       0.4076933498371486  0.3597325537075051  0.9807857956260329 1.0000   
         C         C         1.0       0.37952447295720165           0.3463217563199969 0.9838125697431825 1.0000   
         C         C         1.0       0.3688543416709056  0.33286115545829104           0.0012383674933734673        1.0000   
         C         C         1.0       0.3743405905551939  0.2846721564727326  0.06417120553491096          1.0000   
         C         C         1.0       0.3858718086113572  0.27080652190000504           0.07362209305013281          1.0000   
         C         C         1.0       0.40157265257617186           0.2629145073013082 0.062477615260451334         1.0000   
         C         C         1.0       0.39859371949434746           0.26294726199614893          0.041206082029899435         1.0000   
         C         C         1.0       0.3913023844133515  0.2806933487535728  0.03247214499567133          1.0000   
         C         C         1.0       0.37870834891721433           0.29167914462986994          0.04418623709274587          1.0000   
         C         C         1.0       0.4180829532007768  0.2520017828799537  0.07538500259253753          1.0000   
         C         C         1.0       0.46046720371886996           0.3082994472409381 0.1245419186554372 1.0000   
         C         C         1.0       0.4454826768333548  0.28057417240246946           0.12836257078561145          1.0000   
         C         C         1.0       0.4347354539910345  0.26276565460059587           0.11292166446002154          1.0000   
         C         C         1.0       0.4327010278715101  0.27224404129058793           0.0936873046175025 1.0000   
         C         C         1.0       0.446056484326785   0.3007140529255123  0.08998450951701717          1.0000   
         C         C         1.0       0.4599386949055026  0.3178863814353114  0.10568223194665508          1.0000   
         C         C         1.0       0.44312205399094373           0.25183323474155145          0.06612149842913517          1.0000   
         C         C         1.0       0.449885493944363   0.23181573580595136           0.0706489227244314 1.0000   
         C         C         1.0       0.47287346408285963           0.23270078880307934          0.06241435355934097          1.0000   
         C         C         1.0       0.48581465810773705           0.24990548958279823          0.04689040594069005          1.0000   
         C         C         1.0       0.4797947797816189  0.2698282457424842  0.04255272360998637          1.0000   
         C         C         1.0       0.45917984201493667           0.27124149129738256          0.051965012474910297         1.0000   
         C         C         1.0       0.3785491794282231  0.21375846838944623           0.0964793487530837 1.0000   
         C         C         1.0       0.35835377169259963           0.1872739855294566 0.10014635063118602          1.0000   
         C         C         1.0       0.3519437963890322  0.16719048453304494           0.08567271055723549          1.0000   
         C         C         1.0       0.366240074968419   0.17585060898414015           0.06699329043521314          1.0000   
         C         C         1.0       0.38566685079294216           0.20178547407416034          0.06475762504380167          1.0000   
         C         C         1.0       0.39318367862525677           0.22150367062605567          0.07933344224773345          1.0000   
         H         H         1.0       0.35349347207788834           0.3512183607318281 0.03540746144886627          1.0000   
         H         H         1.0       0.41220973406751993           0.33761847453829813          0.06525822504596829          1.0000   
         H         H         1.0       0.4254293339096006  0.3779760279664524  0.08623408380554011          1.0000   
         H         H         1.0       0.3647214301539955  0.39034943626349555           0.058774464478177295         1.0000   
         H         H         1.0       0.42477734917528215           0.3370430260505221 0.02298797652093058          1.0000   
         H         H         1.0       0.4448655645839276  0.3629545014629573  0.9915799475764926 1.0000   
         H         H         1.0       0.3659141073520438  0.3479487858555797  0.9731245085267207 1.0000   
         H         H         1.0       0.3469844391383125  0.32524677709122174           0.003277210352840413         1.0000   
         H         H         1.0       0.36365382946798225           0.29155110497701386          0.07388586173459546          1.0000   
         H         H         1.0       0.38525125751479644           0.27098738292224106          0.09056060835476025          1.0000   
         H         H         1.0       0.40493558696812976           0.2523131620023762 0.03165615765746442          1.0000   
         H         H         1.0       0.39598446080813865           0.28336517863478733          0.016707715676669222         1.0000   
         H         H         1.0       0.44817304766582755           0.27320433677330946          0.14313915020125526          1.0000   
         H         H         1.0       0.425265165596659   0.2409721162453335  0.11635659264269688          1.0000   
         H         H         1.0       0.44666045685066924           0.30819923194427873          0.07444918147482896          1.0000   
         H         H         1.0       0.472030806892078   0.3400808125287399  0.10087693550768664          1.0000   
         H         H         1.0       0.44098314762468904           0.2172153134170773 0.08414339836263114          1.0000   
         H         H         1.0       0.47850191721791296           0.21759305811953839          0.066020562299597  1.0000   
         H         H         1.0       0.4889729912622795  0.2819879478210236  0.030025053522033433         1.0000   
         H         H         1.0       0.4543540281934678  0.2864055199570398  0.046776410541831515         1.0000   
         H         H         1.0       0.38278014926751697           0.22878234174968734          0.10765695373924197          1.0000   
         H         H         1.0       0.3464258211890284  0.18145076331370125           0.11350726968893017          1.0000   
         H         H         1.0       0.36477805478296205           0.16067276421191465          0.056480431282080294         1.0000   
         H         H         1.0       0.39814501689070075           0.20555463249267275          0.051080683325021095         1.0000   
         C         C         1.0       0.26785248665360906           0.24141019417934842          0.8424930162408772 1.0000   
         C         C         1.0       0.2650930986228587  0.21940359789021008           0.8539051186634634 1.0000   
         C         C         1.0       0.2462837263831113  0.1937278845714338  0.8496009406389545 1.0000   
         C         C         1.0       0.22856584409517755           0.18886363936566056          0.8333767787699572 1.0000   
         C         C         1.0       0.23262361366886294           0.20904191275506265          0.8196888666257656 1.0000   
         C         C         1.0       0.25128133785975015           0.23587471477049382          0.8254197109255866 1.0000   
         H         H         1.0       0.2765029985329053  0.22257407675868646           0.8670871687623392 1.0000   
         H         H         1.0       0.24409623914248818           0.17684583557581873          0.8576613680044585 1.0000   
         H         H         1.0       0.22259333352679547           0.2040752785568156 0.8050967488818043 1.0000   
         H         H         1.0       0.25562422898389825           0.2524792179415865 0.8156355898713296 1.0000   
         C         C         1.0       0.16732935065660962           0.17107611131967349          0.8196558127087837 1.0000   
         C         C         1.0       0.17831892083844217           0.15487233023203945          0.8168051234450375 1.0000   
         C         C         1.0       0.1667814579261266  0.13482711967456792           0.8025196627978173 1.0000   
         C         C         1.0       0.14593399128729215           0.1323065370507749 0.7901761884885597 1.0000   
         C         C         1.0       0.1378131725487667  0.1511681423978823  0.7906747173079888 1.0000   
         C         C         1.0       0.14782741262753782           0.17033655735316777          0.8057671552410436 1.0000   
         C         C         1.0       0.20238941368642055           0.1576651657771411 0.8316562393282604 1.0000   
         C         C         1.0       0.18614268625452693           0.14682719234604652          0.8521857483813159 1.0000   
         C         C         1.0       0.16975893369621892           0.11898863221702018          0.8541137944350642 1.0000   
         C         C         1.0       0.15409161712913816           0.10773668074419   0.8704994188663582 1.0000   
         C         C         1.0       0.15543043708962534           0.1242854782131557 0.8856979016359778 1.0000   
         C         C         1.0       0.1688623669709719  0.15180800759680158           0.8843940277812775 1.0000   
         C         C         1.0       0.18621798502054637           0.16334838272032623          0.8676725908563487 1.0000   
         C         C         1.0       0.22969965443605123           0.1479645359391812 0.8050316062448004 1.0000   
         C         C         1.0       0.24326978547720393           0.13519107322061702          0.7980451682395268 1.0000   
         C         C         1.0       0.24512530930468623           0.11516429883257995          0.8099635112854204 1.0000   
         C         C         1.0       0.23244137592825728           0.10918153459759097          0.8287162269825052 1.0000   
         C         C         1.0       0.22167622189466468           0.12433578172353567          0.8358530086259662 1.0000   
         C         C         1.0       0.21791920031296286           0.14276518314831704          0.8237426885004212 1.0000   
         C         C         1.0       0.25631168577787006           0.09681114775599202          0.8005470649548894 1.0000   
         C         C         1.0       0.18534377692178447           0.04401588496664761          0.7615736395543227 1.0000   
         C         C         1.0       0.2090806607334174  0.06566985816464471           0.7533520024595798 1.0000   
         C         C         1.0       0.23052364275545487           0.08228895125730895          0.7652443195502665 1.0000   
         C         C         1.0       0.23058302812002027           0.07745816349949364          0.7855738168601425 1.0000   
         C         C         1.0       0.20689119131875106           0.05669523880794492          0.7943743343710443 1.0000   
         C         C         1.0       0.18471130158634186           0.040020586849715864         0.7820102255505299 1.0000   
         C         C         1.0       0.264759537001306   0.08054309409636146           0.8156435800854707 1.0000   
         C         C         1.0       0.28133821463943265           0.09230004878157524          0.832081943601687  1.0000   
         C         C         1.0       0.29096035713786095           0.07776890148600638          0.8432511335463317 1.0000   
         C         C         1.0       0.28615603649087606           0.05221682016863456          0.8375545525811287 1.0000   
         C         C         1.0       0.2714876809696857  0.040741250820920935         0.8192920855335928 1.0000   
         C         C         1.0       0.259197468160671   0.05385960124773009           0.8102275868170395 1.0000   
         C         C         1.0       0.30133304246435805           0.14089655953711377          0.7952297755409635 1.0000   
         C         C         1.0       0.32892544879661273           0.15588290025022697          0.789974936036457  1.0000   
         C         C         1.0       0.3381728710676704  0.14430709165863873           0.7759466108159536 1.0000   
         C         C         1.0       0.32196739227059734           0.11823181078373782          0.7695057351504557 1.0000   
         C         C         1.0       0.29485380702989594           0.10230729260799909          0.7760176433749763 1.0000   
         C         C         1.0       0.28409843420365866           0.11380063390291215          0.789510138736184  1.0000   
         H         H         1.0       0.17839128833699294           0.1864290745215604 0.8313154777467803 1.0000   
         H         H         1.0       0.17397394044840725           0.11988474972758371          0.8000342029533435 1.0000   
         H         H         1.0       0.13901166108037238           0.11875636914256323          0.7780191956678595 1.0000   
         H         H         1.0       0.14215699604366785           0.18533835889235134          0.8059141870282626 1.0000   
         H         H         1.0       0.1689189811120499  0.10522187713697925           0.8429206808322605 1.0000   
         H         H         1.0       0.14158563799308468           0.08500552154865047          0.8716326445418293 1.0000   
         H         H         1.0       0.16967471592398095           0.16550430610769667          0.8965706409854741 1.0000   
         H         H         1.0       0.20006166508570303           0.18579888580022297          0.8686238244053559 1.0000   
         H         H         1.0       0.22879180693676487           0.16336211721370197          0.7967729172119618 1.0000   
         H         H         1.0       0.25212509265888833           0.1383305412790088 0.7829104700522806 1.0000   
         H         H         1.0       0.23189518174442317           0.09375588955274577          0.8386817553853331 1.0000   
         H         H         1.0       0.217231145162212   0.12150360492525797           0.8517546133449314 1.0000   
         H         H         1.0       0.20773162212469845           0.06869136183348412          0.7365220694453775 1.0000   
         H         H         1.0       0.24784891798924258           0.10024981617219793          0.7591300273406304 1.0000   
         H         H         1.0       0.20704691649549714           0.051900369028874606         0.8098655425371307 1.0000   
         H         H         1.0       0.1677507212518205  0.021399990661656813         0.7884949416541891 1.0000   
         H         H         1.0       0.28646705672264305           0.11299368603539729          0.8352516158160281 1.0000   
         H         H         1.0       0.3052774961981624  0.08645609892979307           0.8556833711427126 1.0000   
         H         H         1.0       0.2695836224758277  0.022772899152161595         0.8130348829375895 1.0000   
         H         H         1.0       0.24857536185092705           0.043883474772028266         0.7947964022175453 1.0000   
         H         H         1.0       0.2934203733680532  0.15005503781316978           0.8058613160841528 1.0000   
         H         H         1.0       0.3415263536885605  0.17589905346158402           0.7967950731145843 1.0000   
         H         H         1.0       0.3303235517877054  0.11006826431056131           0.7589017825093668 1.0000   
         H         H         1.0       0.28328961274171516           0.0823555192232409 0.7706833562886809 1.0000   
         C         C         1.0       0.04429954041276516           0.22997619487573873          0.6854424818463919 1.0000   
         C         C         1.0       0.029443107644454833          0.206959579546067  0.6731910658198957 1.0000   
         C         C         1.0       0.026197488061717848          0.18191083765933547          0.6784436924994927 1.0000   
         C         C         1.0       0.037776625961461176          0.1797224346860436 0.6967420172723182 1.0000   
         C         C         1.0       0.04983651831564516           0.20224204655013336          0.7099166929680937 1.0000   
         C         C         1.0       0.053606985122919316          0.22735973432278406          0.7040040717044198 1.0000   
         H         H         1.0       0.02085101534538491           0.20953906700660924          0.6589706220727006 1.0000   
         H         H         1.0       0.012759348424714746          0.16476637080359985          0.6695914985427411 1.0000   
         H         H         1.0       0.057175104877177765          0.20138086769665775          0.7251061055413309 1.0000   
         H         H         1.0       0.06320877836000047           0.24349660762909364          0.7147340165728375 1.0000   
         C         C         1.0       0.0844481691401457  0.17270248733904447           0.7144584308817044 1.0000   
         C         C         1.0       0.05783133768390912           0.15243091461155056          0.7172863065760982 1.0000   
         C         C         1.0       0.053082990029569954          0.13220457840979485          0.7323821600317727 1.0000   
         C         C         1.0       0.07447878520008971           0.13247813401608535          0.7426002106239262 1.0000   
         C         C         1.0       0.10162261227316743           0.15299411607511815          0.7400584537000472 1.0000   
         C         C         1.0       0.1060561872443354  0.17144798677286477           0.7252865112076582 1.0000   
         C         C         1.0       0.03430280124660816           0.15111872582828756          0.7024510568511788 1.0000   
         C         C         1.0       0.03848449195038021           0.1349600803070816 0.6844970984407329 1.0000   
         C         C         1.0       0.027805986168147688          0.1069734118649139 0.6854956238810456 1.0000   
         C         C         1.0       0.030624155670026385          0.09378412486210509          0.6689392764076614 1.0000   
         C         C         1.0       0.04299215405296556           0.10618815478279833          0.6509749271588254 1.0000   
         C         C         1.0       0.05378991884407582           0.133823471881338  0.6502003134618586 1.0000   
         C         C         1.0       0.054040499553571486          0.14796650408149475          0.6673784856813193 1.0000   
         C         C         1.0       6.293776577446487e-05         0.14266982402942363          0.7322943067015207 1.0000   
         C         C         1.0       0.47407856100079454           0.12330757907886898          0.7342841438759204 1.0000   
         C         C         1.0       0.45205147895697934           0.10554559334222065          0.7232409239148111 1.0000   
         C         C         1.0       0.456117225995907   0.10113264744229798           0.7028471519291415 1.0000   
         C         C         1.0       0.4812349667375564  0.11626678901415367           0.6937807862447698 1.0000   
         C         C         1.0       0.00485029003518515           0.13596047821015148          0.7125605156474608 1.0000   
         C         C         1.0       0.4244672308174914  0.08907580442110716           0.7354817871755571 1.0000   
         C         C         1.0       0.4454968176902274  0.03541952991578279           0.7699814927310447 1.0000   
         C         C         1.0       0.44671632308308645           0.05805081353211787          0.778997447171374  1.0000   
         C         C         1.0       0.439160825894376   0.07354935434920298           0.7682773116815491 1.0000   
         C         C         1.0       0.4326006654362509  0.06969783611789455           0.7481481221627112 1.0000   
         C         C         1.0       0.4323044363881442  0.047103552443156844         0.7386443577204326 1.0000   
         C         C         1.0       0.4381737213278376  0.029281454113313732         0.7494095593744184 1.0000   
         C         C         1.0       0.39747500039693795           0.07366041498520183          0.7221964731958085 1.0000   
         C         C         1.0       0.3931439718596997  0.08677687351821074           0.705566353621147  1.0000   
         C         C         1.0       0.3696424352562966  0.07396675874002355           0.6943722153632808 1.0000   
         C         C         1.0       0.349656374731403   0.04917789397999965           0.6997322820952508 1.0000   
         C         C         1.0       0.35228386925966615           0.03749975450436629          0.716804996796439  1.0000   
         C         C         1.0       0.3763837722249588  0.04873853662634293           0.7273845293004216 1.0000   
         C         C         1.0       0.4008143687218594  0.09999786765246008           0.7641297000761804 1.0000   
         C         C         1.0       0.3901613698901692  0.11435790550922    0.7738466511175183 1.0000   
         C         C         1.0       0.3974016376270506  0.13990636175534044           0.7668736012998305 1.0000   
         C         C         1.0       0.41290983547119087           0.14982493533316035          0.7496779507835789 1.0000   
         C         C         1.0       0.42283577879529455           0.13478814565846844          0.739586311416524  1.0000   
         C         C         1.0       0.4169840738982235  0.10948202550657532           0.7466960698611428 1.0000   
         H         H         1.0       0.09016371197787074           0.1852702562401229 0.7020565181010452 1.0000   
         H         H         1.0       0.03338477906856439           0.11442028635106322          0.7335968635243135 1.0000   
         H         H         1.0       0.06819713357418002           0.11505597116113309          0.7531481865648897 1.0000   
         H         H         1.0       0.12647220118365032           0.18953765959414323          0.7252953140487414 1.0000   
         H         H         1.0       0.014953519397797481          0.09633782840342826          0.6981681872663825 1.0000   
         H         H         1.0       0.020972052864014618          0.07190648254815565          0.6700927191117492 1.0000   
         H         H         1.0       0.06278682963469291           0.1456337600062421 0.6364608750284667 1.0000   
         H         H         1.0       0.06375383690301671           0.16954719197986684          0.666453445299989  1.0000   
         H         H         1.0       0.01724712203897943           0.1570310047150042 0.7414343864748093 1.0000   
         H         H         1.0       0.47375642246733707           0.12657251276078224          0.7502777687896478 1.0000   
         H         H         1.0       0.4400745244187775  0.08634422630132507           0.6930001919109987 1.0000   
         H         H         1.0       0.48319798855421536           0.11484972769260106          0.6775142629113667 1.0000   
         H         H         1.0       0.45061394903158086           0.06123889991268036          0.7954046445607106 1.0000   
         H         H         1.0       0.4414002067761093  0.09193238370635753           0.7763014116004053 1.0000   
         H         H         1.0       0.4302904116537105  0.04509798672468801           0.7221842762101767 1.0000   
         H         H         1.0       0.4401617504949767  0.01306791377490153           0.7421441876658975 1.0000   
         H         H         1.0       0.4056170538798525  0.10815732333966932           0.7021119815663989 1.0000   
         H         H         1.0       0.36745352057042213           0.08495552363197205          0.6817636896736883 1.0000   
         H         H         1.0       0.335341308196326   0.016888093516254536         0.7213192897788513 1.0000   
         H         H         1.0       0.37860850579392    0.04058472648795039           0.742036841701635  1.0000   
         H         H         1.0       0.3942616756789547  0.08005416247898685           0.7708377234787904 1.0000   
         H         H         1.0       0.38153038219824675           0.10579274997066049          0.7883255301644311 1.0000   
         H         H         1.0       0.42025422087444847           0.17110614942970648          0.7466840931047162 1.0000   
         H         H         1.0       0.4356109767824038  0.14523242088624286           0.7261507458674326 1.0000   
         C         C         1.0       0.03774022677202689           0.24237810588467407          0.5124918031324255 1.0000   
         C         C         1.0       0.02012186546479399           0.24888009168580852          0.5224714676736377 1.0000   
         C         C         1.0       0.01606226775995718           0.26948289741883125          0.5154608174354205 1.0000   
         C         C         1.0       0.03139007767541667           0.2850201378847253 0.49922152078701515          1.0000   
         C         C         1.0       0.04703280768856633           0.27692207677712055          0.48793456421367976          1.0000   
         C         C         1.0       0.04881385061429088           0.25530842259912045          0.49416722481673225          1.0000   
         H         H         1.0       0.012367593371297884          0.24114437203816907          0.5372047886982565 1.0000   
         H         H         1.0       0.0027611455425629395         0.274611595472142  0.5240256370438445 1.0000   
         H         H         1.0       0.056101351632292865          0.2889950339730631 0.4739244598498174 1.0000   
         H         H         1.0       0.06393537711587592           0.25139227978083156          0.48597302075723786          1.0000   
         C         C         1.0       0.08337115797051477           0.34199898983307336          0.4869423515807373 1.0000   
         C         C         1.0       0.05614969500992747           0.3342841533933218 0.48221365729847443          1.0000   
         C         C         1.0       0.05172050560756458           0.34666641800366726          0.46487368083852243          1.0000   
         C         C         1.0       0.07121071273037055           0.36209256110329163          0.45153275680302346          1.0000   
         C         C         1.0       0.09620262789258914           0.36658495491712956          0.4559294811320742 1.0000   
         C         C         1.0       0.10324701180118122           0.35747784869865373          0.4732843738572172 1.0000   
         C         C         1.0       0.0295675159679691  0.3126571248183774  0.49501978105814093          1.0000   
         C         C         1.0       0.03318593938318647           0.3311380428243474 0.5149084243194337 1.0000   
         C         C         1.0       0.02730751850492634           0.35219910697881596          0.5139001678512864 1.0000   
         C         C         1.0       0.034494358149448116          0.3703151342849736 0.5302358352043887 1.0000   
         C         C         1.0       0.04207013982342478           0.3641699410803305 0.5483474135964342 1.0000   
         C         C         1.0       0.0500800615487208  0.34457190969405244           0.5491631836109507 1.0000   
         C         C         1.0       0.04588355884776081           0.3290152544953648 0.5328581162457395 1.0000   
         C         C         1.0       0.9969713658226934  0.2859422295324956  0.4660400368676024 1.0000   
         C         C         1.0       0.46793705816886627           0.27858693693337483          0.467490707864704  1.0000   
         C         C         1.0       0.44567635291431806           0.2784863366739773 0.4770444607336663 1.0000   
         C         C         1.0       0.4503262202691443  0.291467757919526   0.4954839628601247 1.0000   
         C         C         1.0       0.4765329016368457  0.30257771249803156           0.5049684104558936 1.0000   
         C         C         1.0       0.9996128367251673  0.2991157912020751  0.4851719967447966 1.0000   
         C         C         1.0       0.41736783418698004           0.26322859699941065          0.46522694139255705          1.0000   
         C         C         1.0       0.4392779544446663  0.3304380035577271  0.42175107878579104          1.0000   
         C         C         1.0       0.440408373046689   0.3070219335988756  0.416559522918794  1.0000   
         C         C         1.0       0.4314679079845971  0.28522216301288184           0.42930060131631287          1.0000   
         C         C         1.0       0.4213506563855231  0.2847091441468823  0.4482841323476197 1.0000   
         C         C         1.0       0.4182234440004037  0.308016521006292   0.4525641105024966 1.0000   
         C         C         1.0       0.42843798920201526           0.3309801186453399 0.4402521046301302 1.0000   
         C         C         1.0       0.39152635245044953           0.2525261643762782 0.47987728463057555          1.0000   
         C         C         1.0       0.3902668364702866  0.2423617698270172  0.4994044483258515 1.0000   
         C         C         1.0       0.3650603279563535  0.22810359155398474           0.509168457346843  1.0000   
         C         C         1.0       0.3428737421137529  0.22781421974650293           0.5000363544343127 1.0000   
         C         C         1.0       0.34393738786026956           0.24012056816418656          0.4826158328026192 1.0000   
         C         C         1.0       0.3690779498702153  0.25290901565921    0.4727443898620961 1.0000   
         C         C         1.0       0.3911270459568473  0.2216178979703127  0.44028818498752675          1.0000   
         C         C         1.0       0.3820670018502181  0.19471748841942246           0.43510982593489694          1.0000   
         C         C         1.0       0.3927660573515281  0.17997382116044988           0.4452645418268075 1.0000   
         C         C         1.0       0.41183995139427654           0.19290272207983922          0.4601426161131661 1.0000   
         C         C         1.0       0.4175060309748952  0.21760891232377402           0.46735046004961883          1.0000   
         C         C         1.0       0.4099693918796592  0.23373840796943168           0.4563192485243124 1.0000   
         H         H         1.0       0.08876655951914163           0.33608867536201303          0.5019389732853424 1.0000   
         H         H         1.0       0.03128444220791968           0.34071555671333104          0.4603483153859919 1.0000   
         H         H         1.0       0.06602925807900382           0.3709399922897219 0.4399186834778522 1.0000   
         H         H         1.0       0.12453914870102684           0.3627408676160145 0.47675604197941046          1.0000   
         H         H         1.0       0.018710024127882276          0.3561445445402258 0.499404522528072  1.0000   
         H         H         1.0       0.03216178856359272           0.3882872192024098 0.5298930898704747 1.0000   
         H         H         1.0       0.06025336279419741           0.34161643274491876          0.562484847329864  1.0000   
         H         H         1.0       0.053347038446313035          0.3148008850351384 0.533531155573694  1.0000   
         H         H         1.0       0.01614175278643003           0.29008230032323984          0.4589963147683698 1.0000   
         H         H         1.0       0.4659861589088547  0.26717087373497866           0.45388363293127093          1.0000   
         H         H         1.0       0.435454378611285   0.29470615857031657           0.5036309510466335 1.0000   
         H         H         1.0       0.47750298661670604           0.3103283685736699 0.5197841848889917 1.0000   
         H         H         1.0       0.4478813212373964  0.3062887418609718  0.4019527285481784 1.0000   
         H         H         1.0       0.4347506358588247  0.2693488051936972  0.42465023611899216          1.0000   
         H         H         1.0       0.40944313216681183           0.30833088275346826          0.46663900127143004          1.0000   
         H         H         1.0       0.4261991857401291  0.34786241354576886           0.4436127344302195 1.0000   
         H         H         1.0       0.4077364854673879  0.24199574338257943           0.5052327678876778 1.0000   
         H         H         1.0       0.3634475026682163  0.21805773842973866           0.5243744368803649 1.0000   
         H         H         1.0       0.3281800765099259  0.24122383230529848           0.47555635854989897          1.0000   
         H         H         1.0       0.36923993561457763           0.26201062519215035          0.4588535854692738 1.0000   
         H         H         1.0       0.38213274355704074           0.23261219260063468          0.4333129034850171 1.0000   
         H         H         1.0       0.37040424375839187           0.1872950624679586 0.42125894200742164          1.0000   
         H         H         1.0       0.4199304796482017  0.18134324769776167           0.46689525631964285          1.0000   
         H         H         1.0       0.42981013328773787           0.2232767144746661 0.48054307031772076          1.0000   
         C         C         1.0       0.25663078296535385           0.43640433261160266          0.3527058945451456 1.0000   
         C         C         1.0       0.2308526881056117  0.4211354585153584  0.36087580431443333          1.0000   
         C         C         1.0       0.21963983628390624           0.43315358822090505          0.3722563651429218 1.0000   
         C         C         1.0       0.23041659203035528           0.46159841118961814          0.3722966791544625 1.0000   
         C         C         1.0       0.2558420762554914  0.4767899982507827  0.36247192928750965          1.0000   
         C         C         1.0       0.26887258242252277           0.46449972486617563          0.35341352667786075          1.0000   
         H         H         1.0       0.2201008341158545  0.3991919615776658  0.3608130318244163 1.0000   
         H         H         1.0       0.2007264520808194  0.4195912089086518  0.37994029219979575          1.0000   
         H         H         1.0       0.2642700113204098  0.4993768840803468  0.3611039906858    1.0000   
         H         H         1.0       0.2884687945846534  0.4779218092320894  0.3457424040974696 1.0000   
         C         C         1.0       0.1983965378278729  0.44919832147341276           0.4114809519877603 1.0000   
         C         C         1.0       0.1904763274252527  0.4591340375428865  0.395205538051465  1.0000   
         C         C         1.0       0.16347361359825502           0.4540401195171287 0.396242510649453  1.0000   
         C         C         1.0       0.14649799489445295           0.44058351887586483          0.4119393000759609 1.0000   
         C         C         1.0       0.1547727100404019  0.4299364525546542  0.4271225675770778 1.0000   
         C         C         1.0       0.1816833028363878  0.4360162073401362  0.42737416752715   1.0000   
         C         C         1.0       0.21041028784193302           0.47376630082382576          0.3765928622641708 1.0000   
         C         C         1.0       0.1948171068881452  0.46722972135755425           0.35472366392894294          1.0000   
         C         C         1.0       0.20578312155094128           0.4855900380057371 0.33817822719633683          1.0000   
         C         C         1.0       0.19444312255989354           0.4792780721287422 0.3196243937863807 1.0000   
         C         C         1.0       0.17393595284845192           0.45308182037233585          0.3147175396580567 1.0000   
         C         C         1.0       0.16342020814823555           0.4344973047776285 0.3301763678927159 1.0000   
         C         C         1.0       0.17238522265618245           0.44143339148259525          0.34975638888692695          1.0000   
         C         C         1.0       0.2303812932321213  0.00933348856264474           0.40522650703687213          1.0000   
         C         C         1.0       0.2458875378287182  0.03557625213126701           0.41076188562805965          1.0000   
         C         C         1.0       0.24297443012920653           0.05614940821739653          0.4013490650150479 1.0000   
         C         C         1.0       0.2269902607643324  0.04917713691341355           0.3839017824699777 1.0000   
         C         C         1.0       0.21022402933747247           0.022400809559308035         0.37930547227383377          1.0000   
         C         C         1.0       0.2125316320054602  0.002532336136882241         0.3887279170290162 1.0000   
         C         C         1.0       0.25521654036205044           0.08676945451056378          0.4108390742492009 1.0000   
         C         C         1.0       0.1829945405424617  0.06617087783644043           0.44892941012540416          1.0000   
         C         C         1.0       0.20519574215619688           0.06634936296988062          0.4570675931458981 1.0000   
         C         C         1.0       0.22811100893967234           0.07257720154058565          0.44559377229066327          1.0000   
         C         C         1.0       0.2294655008162637  0.08116465558233017           0.42570792756559145          1.0000   
         C         C         1.0       0.20659212061954416           0.08157593686385736          0.4172050675292328 1.0000   
         C         C         1.0       0.1838738028455664  0.07194566934131709           0.4287128724349134 1.0000   
         C         C         1.0       0.2642891376291049  0.11207547229430441           0.39522355073637966          1.0000   
         C         C         1.0       0.2768571897354673  0.11216956347068127           0.376791208827409  1.0000   
         C         C         1.0       0.2863235440541966  0.13401798776311097           0.3643808665823965 1.0000   
         C         C         1.0       0.2881806748533724  0.1587233299795052  0.37112935897098653          1.0000   
         C         C         1.0       0.27706508594421125           0.15904440359867897          0.3896123154193727 1.0000   
         C         C         1.0       0.2638360076582057  0.13541212439394917           0.4010064124356118 1.0000   
         C         C         1.0       0.29157205988216617           0.11296907553722924          0.44030334537791793          1.0000   
         C         C         1.0       0.3173021770345143  0.12313887705349463           0.4496885111707194 1.0000   
         C         C         1.0       0.3355256204349542  0.11821492540370772           0.44029680524758763          1.0000   
         C         C         1.0       0.3281620842197939  0.10203335575690224           0.42290857252382213          1.0000   
         C         C         1.0       0.3029508336769832  0.09194417384616145           0.41395952660947444          1.0000   
         C         C         1.0       0.28381758460448553           0.09725098280562484          0.42213000366770714          1.0000   
         H         H         1.0       0.21885635152405078           0.45178483292884714          0.41304145861995256          1.0000   
         H         H         1.0       0.15463067173508788           0.45998306770645075          0.38414459573181076          1.0000   
         H         H         1.0       0.1253361679538748  0.43423077612949823           0.40984171753017035          1.0000   
         H         H         1.0       0.18927552863703273           0.4279451982577373 0.4393198323232579 1.0000   
         H         H         1.0       0.22279140803035521           0.5053718630861729 0.3393406994368929 1.0000   
         H         H         1.0       0.20176277637606854           0.49508162289585433          0.30779441956011894          1.0000   
         H         H         1.0       0.14643751217568649           0.4135895565293129 0.3271522060876828 1.0000   
         H         H         1.0       0.16471307388649822           0.42462757193127465          0.3604017664772249 1.0000   
         H         H         1.0       0.2515956966516323  0.499593127265926   0.40605241117985247          1.0000   
         H         H         1.0       0.2557577842145461  0.03857117791566504           0.42592070933336185          1.0000   
         H         H         1.0       0.22471704893869804           0.06434023057105075          0.3758295397086977 1.0000   
         H         H         1.0       0.19272415468779416           0.01712251008710972          0.3700868713479875 1.0000   
         H         H         1.0       0.20288680872767534           0.05690543658750648          0.4715186715855701 1.0000   
         H         H         1.0       0.2433160089300383  0.0680391154931252  0.4511220571472319 1.0000   
         H         H         1.0       0.20558239950129653           0.08567571493256643          0.40135066482612336          1.0000   
         H         H         1.0       0.164420252503682   0.06876799067920045           0.4219144456093261 1.0000   
         H         H         1.0       0.27856608771338454           0.09532785482737424          0.3722966440739449 1.0000   
         H         H         1.0       0.29194864413647476           0.1308867169433673 0.34965867831572556          1.0000   
         H         H         1.0       0.27880023419784755           0.17771513210014994          0.39498803792137477          1.0000   
         H         H         1.0       0.2564885880487406  0.13617222018175137           0.4149108460258601 1.0000   
         H         H         1.0       0.276901169077803   0.11877369372073326           0.4464261877298732 1.0000   
         H         H         1.0       0.3220748365701421  0.13771685512215154           0.4624921851848021 1.0000   
         H         H         1.0       0.3416995134231529  0.09727385698738329           0.4157189624322217 1.0000   
         H         H         1.0       0.29892190758830506           0.07625724432242076          0.4014597160084848 1.0000   
         C         C         1.0       0.2768003210660665  0.4955947421923252  0.6874952583644043 1.0000   
         C         C         1.0       0.2537249586881821  0.48245548976969027           0.6994020444771558 1.0000   
         C         C         1.0       0.22853163890757316           0.4764395418069313 0.6907303350909552 1.0000   
         C         C         1.0       0.22703190037315463           0.4874472065506264 0.6721557331408453 1.0000   
         C         C         1.0       0.24951294646757494           0.49785328798548445          0.6596942952137942 1.0000   
         C         C         1.0       0.2734209673453612  0.5006183609915951  0.6671226545143227 1.0000   
         H         H         1.0       0.25375641537650334           0.47594689408063956          0.7156864474549406 1.0000   
         H         H         1.0       0.20993007776851466           0.46707062786555364          0.6987964420987701 1.0000   
         H         H         1.0       0.24069658233938884           0.0002705414850634745        0.6397793896508015 1.0000   
         H         H         1.0       0.28618359032337587           0.010922131770071885         0.6445971331647861 1.0000   
         C         C         1.0       0.21753181671177615           0.03159546692806486          0.6574334620424228 1.0000   
         C         C         1.0       0.1966134888218256  0.0035087761410823332        0.6563316758558254 1.0000   
         C         C         1.0       0.17365773922751337           0.9960969174647214 0.644703773635222  1.0000   
         C         C         1.0       0.17161740518593466           0.01529549841703555          0.6338505186683062 1.0000   
         C         C         1.0       0.19278119692048779           0.04243017914824351          0.6323960130952949 1.0000   
         C         C         1.0       0.21430401154458084           0.051077546589877995         0.6459495663282228 1.0000   
         C         C         1.0       0.19833618795665148           0.48505345146562706          0.6664072897689288 1.0000   
         C         C         1.0       0.18473618532326697           0.4923977821482609 0.6853711882644831 1.0000   
         C         C         1.0       0.15596913364785164           0.48102869080784444          0.68547848531324   1.0000   
         C         C         1.0       0.14433310993051612           0.48764441516266405          0.7011676023604082 1.0000   
         C         C         1.0       0.1636257620775782  0.990249084595202   0.7254754058858782 1.0000   
         C         C         1.0       0.1908307975127468  0.0014134055541396332        0.7233538575999726 1.0000   
         C         C         1.0       0.2011983365633005  0.9992967500174368  0.7050553591905566 1.0000   
         C         C         1.0       0.188261194022841   0.45078074682076974           0.6372097111093109 1.0000   
         C         C         1.0       0.17629744263737618           0.42585974891356987          0.627939528562375  1.0000   
         C         C         1.0       0.1562596642730483  0.40237393652223435           0.6377043157726163 1.0000   
         C         C         1.0       0.14758151196902716           0.4061676063628584 0.6561315538390174 1.0000   
         C         C         1.0       0.16194413625979603           0.43168989007295094          0.666200681837172  1.0000   
         C         C         1.0       0.1814036875750919  0.4551032916591095  0.656265480507023  1.0000   
         C         C         1.0       0.14007089216088664           0.37393190952635685          0.625747107930227  1.0000   
         C         C         1.0       0.09117977197895286           0.3970546217369478 0.586465950598366  1.0000   
         C         C         1.0       0.11487454793721665           0.3982239630663528 0.57922085355678   1.0000   
         C         C         1.0       0.13037835496393615           0.3907200447010455 0.5908143239366229 1.0000   
         C         C         1.0       0.12202121353871084           0.3815810070091498 0.6109247901958254 1.0000   
         C         C         1.0       0.09800528380255505           0.38080479317862526          0.6181164946314134 1.0000   
         C         C         1.0       0.08325974161424438           0.38790645066596174          0.6057994085738565 1.0000   
         C         C         1.0       0.12255559243427863           0.34602968098099923          0.6370412901558462 1.0000   
         C         C         1.0       0.1301750001052529  0.3408998210334722  0.6561280739860491 1.0000   
         C         C         1.0       0.11740885804884474           0.31443554974758336          0.6630222324845911 1.0000   
         C         C         1.0       0.09449310382155804           0.29359907481558967          0.654113231288105  1.0000   
         C         C         1.0       0.0855739290177111  0.3003129870640102  0.6362814792496574 1.0000   
         C         C         1.0       0.1004799962326166  0.3254096123116952  0.6265538479568852 1.0000   
         C         C         1.0       0.1566038690576471  0.3496243998834426  0.5991987991677094 1.0000   
         C         C         1.0       0.17271682738568486           0.3385981424326001 0.5953079136528506 1.0000   
         C         C         1.0       0.19491608850694128           0.34471320617273776          0.6064928067335849 1.0000   
         C         C         1.0       0.20245977817277613           0.3628259890473728 0.6221484217150896 1.0000   
         C         C         1.0       0.18658897935569418           0.3734793834837048 0.6273767105529237 1.0000   
         C         C         1.0       0.16213793518547825           0.3665624559710197 0.6160986634655075 1.0000   
         H         H         1.0       0.234723337313277   0.03930884163859521           0.6683151100845663 1.0000   
         H         H         1.0       0.1630634861029018  0.4861678596926906  0.6364753822782818 1.0000   
         H         H         1.0       0.1551668732341815  0.007473543984053535         0.6224801306620459 1.0000   
         H         H         1.0       0.22860398673836238           0.07162744398213197          0.6453515977823502 1.0000   
         H         H         1.0       0.14324515963441026           0.46986524235429794          0.6722713780405078 1.0000   
         H         H         1.0       0.12233147718147502           0.4790439900659065 0.7014907196182691 1.0000   
         H         H         1.0       0.20341854309422988           0.014335714956524425         0.7362922230480156 1.0000   
         H         H         1.0       0.22263497191333037           0.010982776286598186         0.7027751323445137 1.0000   
         H         H         1.0       0.2056491983342333  0.4683464083060758  0.6292703666922148 1.0000   
         H         H         1.0       0.1853656392684873  0.4236596082084055  0.6141777168001494 1.0000   
         H         H         1.0       0.1333366494609721  0.3888431077520354  0.6643275629694758 1.0000   
         H         H         1.0       0.15803958382542105           0.43525930950097425          0.6815627625741759 1.0000   
         H         H         1.0       0.12297412078333145           0.4053159923315963 0.5635350399859347 1.0000   
         H         H         1.0       0.14803933744633502           0.3918429620381759 0.5837751126159597 1.0000   
         H         H         1.0       0.09305367382483425           0.37740634553886715          0.6332117984695369 1.0000   
         H         H         1.0       0.0649086276859429  0.38462801215095677           0.6116785758004342 1.0000   
         H         H         1.0       0.1458591819474692  0.35679373982270324           0.665800333138239  1.0000   
         H         H         1.0       0.12545575673406528           0.3105870435541028 0.6769691836026569 1.0000   
         H         H         1.0       0.06604850698847263           0.2839672382503832 0.6282414827213296 1.0000   
         H         H         1.0       0.09226203049272279           0.326785753470161  0.6111792317353336 1.0000   
         H         H         1.0       0.1394676619477719  0.3431970830304085  0.5890491634012885 1.0000   
         H         H         1.0       0.16701395851149328           0.3252657327548491 0.5829885600226181 1.0000   
         H         H         1.0       0.21943849025915285           0.3654857034342924 0.631402039109161  1.0000   
         H         H         1.0       0.19146427136444455           0.3860293968888393 0.6412105771939043 1.0000   
         C         C         1.0       0.2763335173634286  0.21236345161471856           0.5259501102018195 1.0000   
         C         C         1.0       0.2543268769151999  0.20501336682161184           0.512582898397523  1.0000   
         C         C         1.0       0.22857151709266454           0.184298689783769  0.5191613414949802 1.0000   
         C         C         1.0       0.22414672696452168           0.1695976061252487 0.5373318064121078 1.0000   
         C         C         1.0       0.2465603944879224  0.179723073453598   0.550684502712258  1.0000   
         C         C         1.0       0.27223041694227973           0.20039227969808865          0.5449980582175593 1.0000   
         H         H         1.0       0.2558483975063432  0.21271325375483238           0.4968835691017022 1.0000   
         H         H         1.0       0.21084986141300147           0.1779151537547199 0.508689131900429  1.0000   
         H         H         1.0       0.2447966423930034  0.16986309667152605           0.5655149843638797 1.0000   
         H         H         1.0       0.2888727361813043  0.20621133240898026           0.5545633736125138 1.0000   
         C         C         1.0       0.21928074698857747           0.11633193616805147          0.5558381926904249 1.0000   
         C         C         1.0       0.1974985029234751  0.12065920285810798           0.5565875289965232 1.0000   
         C         C         1.0       0.1754260882351927  0.10419611809041014           0.5688313348436153 1.0000   
         C         C         1.0       0.17564945511797211           0.08290110567363565          0.5796183251079808 1.0000   
         C         C         1.0       0.19942250106968737           0.08180966604794333          0.5810319462058852 1.0000   
         C         C         1.0       0.2206363025494761  0.09807864059517085           0.568724839591626  1.0000   
         C         C         1.0       0.19571636839606318           0.14302987745328835          0.5424454803493912 1.0000   
         C         C         1.0       0.1808004016350931  0.12303595984959068           0.5227664812769022 1.0000   
         C         C         1.0       0.15385186115610375           0.10593781871749818          0.5199497906429781 1.0000   
         C         C         1.0       0.14288830302968347           0.0910364961271995 0.5020858551363911 1.0000   
         C         C         1.0       0.16052777265017634           0.09451948528601443          0.48627197184993665          1.0000   
         C         C         1.0       0.18750150457689904           0.10847514925364914          0.4899922661243312 1.0000   
         C         C         1.0       0.19798316481191616           0.12297196990818988          0.5076106415871204 1.0000   
         C         C         1.0       0.1865328582964941  0.16866789641132868           0.5713662212825011 1.0000   
         C         C         1.0       0.17371395648613308           0.18228108769145734          0.5792837214601764 1.0000   
         C         C         1.0       0.1550902605401757  0.186345187077222   0.5679328252600664 1.0000   
         C         C         1.0       0.14989186533101478           0.17610136597323786          0.5479990194135141 1.0000   
         C         C         1.0       0.1629452610447334  0.16348122306311225           0.5403825988614294 1.0000   
         C         C         1.0       0.1798635306452642  0.15754730764666577           0.5518859206259785 1.0000   
         C         C         1.0       0.13864854694479825           0.19899762530860865          0.577791207834695  1.0000   
         C         C         1.0       0.08944892490972518           0.1264035802394364 0.6152962105932055 1.0000   
         C         C         1.0       0.11212227806813152           0.14749783980027356          0.6229147000259699 1.0000   
         C         C         1.0       0.12718892486901553           0.17051241433524292          0.6115908258398661 1.0000   
         C         C         1.0       0.11991369316516197           0.17281131445833836          0.5914795460179506 1.0000   
         C         C         1.0       0.09767604948074392           0.15064359997311255          0.5829772185267719 1.0000   
         C         C         1.0       0.08077513708098326           0.1281374474400431 0.5951915155901573 1.0000   
         C         C         1.0       0.12224789922826035           0.2090147815787799 0.563804642627668  1.0000   
         C         C         1.0       0.1319388695346132  0.22318416874533598           0.5459270088351972 1.0000   
         C         C         1.0       0.11655472885969585           0.23294106427565725          0.5334136524137706 1.0000   
         C         C         1.0       0.09136993236786166           0.2266352556283208 0.5407685286187658 1.0000   
         C         C         1.0       0.08211384278898047           0.21398070865983582          0.5588190387960439 1.0000   
         C         C         1.0       0.09743317222836818           0.2050356845144833 0.5696944533290108 1.0000   
         C         C         1.0       0.14935286745528917           0.2345574200396228 0.606241932950273  1.0000   
         C         C         1.0       0.16416755587209506           0.2608831210763441 0.6135243385034977 1.0000   
         C         C         1.0       0.18892092855649092           0.2772142308757697 0.6053994564197968 1.0000   
         C         C         1.0       0.1991594476608681  0.26926386369860256           0.5898507484619744 1.0000   
         C         C         1.0       0.1827907284705491  0.24555558275293826           0.5803138934119917 1.0000   
         C         C         1.0       0.15801575526880285           0.22683495013540633          0.5888811096189561 1.0000   
         H         H         1.0       0.23466691688257635           0.12442726340559408          0.544186718737807  1.0000   
         H         H         1.0       0.15643950851678104           0.10484130173477292          0.5678373448180346 1.0000   
         H         H         1.0       0.15642013157943643           0.06816189997059897          0.5878480163061546 1.0000   
         H         H         1.0       0.24016106854060035           0.09776865969027697          0.5677030306262765 1.0000   
         H         H         1.0       0.13803520509642167           0.10093532254429909          0.5317126015119651 1.0000   
         H         H         1.0       0.12100931949816796           0.07910218522575829          0.4999443455591103 1.0000   
         H         H         1.0       0.19989177122297824           0.1069282686554924 0.4780750656322585 1.0000   
         H         H         1.0       0.2202254849493832  0.13546913570532715           0.508527896644046  1.0000   
         H         H         1.0       0.2017537844982541  0.16808478563531787           0.5791762664609367 1.0000   
         H         H         1.0       0.17988434152501848           0.19066531631666092          0.594928197478427  1.0000   
         H         H         1.0       0.1360789157322274  0.1785880021512305  0.5375673617263784 1.0000   
         H         H         1.0       0.15758847179172542           0.15716668202619138          0.5247961635523858 1.0000   
         H         H         1.0       0.11991167798783191           0.1464140268409226 0.638106325788997  1.0000   
         H         H         1.0       0.14529624541130187           0.18708540898108883          0.6184039590764435 1.0000   
         H         H         1.0       0.09185093450563935           0.15135303506108366          0.5675567876553606 1.0000   
         H         H         1.0       0.06390815811562921           0.11064503271939298          0.588844159581388  1.0000   
         H         H         1.0       0.15144559890525836           0.22859960645205382          0.5412909156264225 1.0000   
         H         H         1.0       0.12474291853329293           0.24345156269722942          0.5202568231708973 1.0000   
         H         H         1.0       0.06496826029132602           0.21441807876845842          0.5668317879559996 1.0000   
         H         H         1.0       0.08933866682797441           0.19645160985512927          0.5842619030993849 1.0000   
         H         H         1.0       0.12947138153356993           0.22289922857659558          0.6127892208147402 1.0000   
         H         H         1.0       0.15737650168259823           0.27029647591411626          0.6255056870040951 1.0000   
         H         H         1.0       0.21930488546711902           0.2844962691006008 0.5832204906071073 1.0000   
         H         H         1.0       0.19042071760425067           0.24234072031612547          0.5660273674287248 1.0000   
         C         C         1.0       0.19175973182829287           0.061110392707012975         0.6159122697494286 1.0000   
         C         C         1.0       0.20052762762172047           0.05983207005252085          0.5945627478734966 1.0000   
         H         H         1.0       0.1709863799053391  0.05719671404064676           0.6169848292454916 1.0000   
         H         H         1.0       0.20134160385409397           0.0827093500372883 0.6208320004884569 1.0000   
         H         H         1.0       0.18705801842927466           0.03989514615958649          0.5871443193487985 1.0000   
         H         H         1.0       0.22281455729280497           0.06512427208565244          0.5969175119000453 1.0000   
         C         C         1.0       0.2070473659592319  0.30533578962919106           0.6138813718372854 1.0000   
         C         C         1.0       0.2125166281645767  0.3308695059171894  0.6014890468519168 1.0000   
         H         H         1.0       0.20304855345340805           0.30659411303476036          0.6298358475793246 1.0000   
         H         H         1.0       0.22748930681648333           0.30656065619615885          0.6149766344588629 1.0000   
         H         H         1.0       0.2082160530512747  0.32557321150020163           0.5855198231021224 1.0000   
         H         H         1.0       0.2339978914799163  0.3455677724627294  0.6027021532479458 1.0000   
         C         C         1.0       0.15635976377061928           0.05666014071663146          0.4599339015328337 1.0000   
         C         C         1.0       0.14972904751433558           0.07974563019711224          0.4655990833472869 1.0000   
         H         H         1.0       0.15669307662447138           0.0454437786742254 0.47303984976394975          1.0000   
         H         H         1.0       0.1380239442611768  0.04190017824420463           0.45132172701072265          1.0000   
         H         H         1.0       0.12698242032995755           0.07254723463468507          0.4656663783925933 1.0000   
         H         H         1.0       0.1559559311976288  0.09521180253270668           0.4534153733993784 1.0000   
         C         C         1.0       0.04417400469099397           0.38108172411181673          0.5670713593962748 1.0000   
         C         C         1.0       0.07183409596846443           0.4053021302342236 0.5737487597107719 1.0000   
         H         H         1.0       0.03017344516239251           0.3895989162949904 0.5643148869770138 1.0000   
         H         H         1.0       0.03484632561958762           0.3681578832835456 0.5813617168449716 1.0000   
         H         H         1.0       0.08143542781152341           0.4165914661001378 0.5595160417228264 1.0000   
         H         H         1.0       0.06728596276217297           0.41960936534750937          0.5821641649159117 1.0000   
         C         C         1.0       0.12075197577339236           0.38380742590818795          0.44183069258648   1.0000   
         C         C         1.0       0.1364905251174274  0.4159489137850393  0.4453978417294013 1.0000   
         H         H         1.0       0.13612781177313674           0.3772879872297001 0.44314757149824857          1.0000   
         H         H         1.0       0.11347246102226194           0.37737573404864827          0.42591762033009956          1.0000   
         H         H         1.0       0.12219565965188976           0.4244290657611625 0.44434835815954016          1.0000   
         H         H         1.0       0.1456618034897417  0.42256119350436    0.4609830424747332 1.0000   
         C         C         1.0       0.38600113137566155           0.1522647931056855 0.4367346927289382 1.0000   
         C         C         1.0       0.3639655086856271  0.12862486148853286           0.44844834411321594          1.0000   
         H         H         1.0       0.38129272717084833           0.15138754043398386          0.42052518663433336          1.0000   
         H         H         1.0       0.4038364824182514  0.14961941945688378           0.4385829581792184 1.0000   
         H         H         1.0       0.36584152450789187           0.13418241117629087          0.4648547781640759 1.0000   
         H         H         1.0       0.36914460175312497           0.11217748155137731          0.4477584904979177 1.0000   
         C         C         1.0       0.048195747593646546          0.2244624463652594 0.5213565367960372 1.0000   
         C         C         1.0       0.07629423082695443           0.24137891461212962          0.5308098972572887 1.0000   
         H         H         1.0       0.04968017834777786           0.2126505057651668 0.5087421086883241 1.0000   
         H         H         1.0       0.03368089446694274           0.20944777708564283          0.531762651000989  1.0000   
         H         H         1.0       0.07536668233436877           0.25462847702195335          0.5430650256163553 1.0000   
         H         H         1.0       0.08932038699739733           0.2566504921856736 0.5186699093357511 1.0000   
         C         C         1.0       0.30561203767986256           0.22916365812515418          0.5190534413984832 1.0000   
         C         C         1.0       0.31493255406891757           0.21081439188525544          0.5077567351460941 1.0000   
         H         H         1.0       0.3191088890256266  0.23787746934985593           0.5330291252298717 1.0000   
         H         H         1.0       0.3075965950599461  0.24705033898337886           0.5104002370535895 1.0000   
         H         H         1.0       0.30070695872362885           0.19971385944839934          0.4950902391527105 1.0000   
         H         H         1.0       0.31200156614454266           0.19259211273276516          0.5160824548153088 1.0000   
         C         C         1.0       0.04530044342415614           0.09058188351806738          0.6334307675485943 1.0000   
         C         C         1.0       0.0746729438900655  0.0993098075014151  0.627473076787516  1.0000   
         H         H         1.0       0.03561419335212025           0.06793856811903629          0.6346460075737841 1.0000   
         H         H         1.0       0.03440481417098574           0.09213089204242401          0.6187202179160707 1.0000   
         H         H         1.0       0.07537520353871087           0.08315872085807222          0.6181031019772493 1.0000   
         H         H         1.0       0.08720630618184967           0.10160123786551759          0.6408583602672568 1.0000   
         C         C         1.0       0.05476503116301852           0.25901395245913206          0.6770987914513632 1.0000   
         C         C         1.0       0.07920102596167156           0.2652247286346722 0.6626458403614153 1.0000   
         H         H         1.0       0.03873247808043687           0.2628630974093839 0.6704299083332504 1.0000   
         H         H         1.0       0.0623835917202186  0.27417561827092946           0.6897366111679027 1.0000   
         H         H         1.0       0.07037126893628887           0.2516473719942784 0.65036696195482   1.0000   
         H         H         1.0       0.09376963432927296           0.2579845144646406 0.6689732502555626 1.0000   
         C         C         1.0       0.3212888197117422  0.036322055143765075         0.6886159729902829 1.0000   
         C         C         1.0       0.31057641121543517           0.0076862272915120475        0.6800666226980905 1.0000   
         H         H         1.0       0.304220648491746   0.0331343371543464  0.6994456101200848 1.0000   
         H         H         1.0       0.32191841654790937           0.05012275117669903          0.6764198204682573 1.0000   
         H         H         1.0       0.32354058098342386           0.01018220017206632          0.6682529257829376 1.0000   
         H         H         1.0       0.3052820017914229  0.48414788207576664           0.7015256837127836 1.0000   
         C         C         1.0       0.15352329105006826           0.9979433599912477 0.7451786222325244 1.0000   
         C         C         1.0       0.1608872256543455  0.02735933962303025           0.7482478222655405 1.0000   
         H         H         1.0       0.13101408798113104           0.9860559822597914 0.7439390767904427 1.0000   
         H         H         1.0       0.1575220836470478  0.9878065465298091  0.7587546592468054 1.0000   
         H         H         1.0       0.16633607141859652           0.03712687662904769          0.7336255808714225 1.0000   
         H         H         1.0       0.14395488112334065           0.03163454969765091          0.7518563238269024 1.0000   
         C         C         1.0       0.12402850452859084           0.15522412548663161          0.7538859538321909 1.0000   
         C         C         1.0       0.1145840472607347  0.14853244614562966           0.7761237870062693 1.0000   
         H         H         1.0       0.12750110971679818           0.13828870717040392          0.7482412640648815 1.0000   
         H         H         1.0       0.1443996774403465  0.17408615825916646           0.7531330243307547 1.0000   
         H         H         1.0       0.1064906760484865  0.16118798684861535           0.7818039700661765 1.0000   
         H         H         1.0       0.09775247453432988           0.12848887406383372          0.7794014504979101 1.0000   
         C         C         1.0       0.39135879660389056           0.16062608523792626          0.7770200611989024 1.0000   
         C         C         1.0       0.3664410546783701  0.161049607855495   0.7674428722466627 1.0000   
         H         H         1.0       0.3838349047221608  0.15379370942897294           0.7928268414883812 1.0000   
         H         H         1.0       0.4093652507933942  0.18033328221779976           0.7782874380987935 1.0000   
         H         H         1.0       0.3660577677844817  0.15596771685747424           0.7508014853325197 1.0000   
         H         H         1.0       0.37232362817506054           0.18206971720138948          0.7706508152832103 1.0000   
         C         C         1.0       0.40171884411982267           0.40990780956656064          0.08615349314595373          1.0000   
         C         C         1.0       0.4083410171065731  0.4374179627016756  0.07713988014556815          1.0000   
         H         H         1.0       0.3833000793474233  0.40213467323783025           0.09520209122301604          1.0000   
         H         H         1.0       0.4189141952196841  0.4130907259745955  0.09647633589981591          1.0000   
         H         H         1.0       0.42912051928783085           0.4495533724800018 0.07194994072282125          1.0000   
         H         H         1.0       0.3966898184338273  0.4338904816514495  0.06312145758058696          1.0000   
         C         C         1.0       0.3288241156454898  0.137993899471254   0.08899804456852008          1.0000   
         C         C         1.0       0.33146562324525386           0.11447364219648624          0.0798544512039146 1.0000   
         H         H         1.0       0.3239892185108115  0.13371134709650964           0.10617605951315451          1.0000   
         H         H         1.0       0.3093060397920064  0.1371644505248787  0.08248182688267519          1.0000   
         H         H         1.0       0.33739652838295636           0.12002308381016866          0.06286565419793919          1.0000   
         H         H         1.0       0.311923579886846   0.09459858184590386           0.08011652119457187          1.0000   
         C         C         1.0       0.022087719514191178          0.3486066681072677 0.1350849016157049 1.0000   
         C         C         1.0       0.47769589130641804           0.3281176312948762 0.1419387758232364 1.0000   
         H         H         1.0       0.034892292552767525          0.36995921120282305          0.13853237987877914          1.0000   
         H         H         1.0       0.028913896881486552          0.3431083952208394 0.12108054185822617          1.0000   
         H         H         1.0       0.4718868234471583  0.3438003240190924  0.14404663816363347          1.0000   
         H         H         1.0       0.4724213069119331  0.31750183810059124           0.15641899021262665          1.0000   
         C         C         1.0       0.9924342230248527  0.1744197351025714  0.19191168562479555          1.0000   
         C         C         1.0       0.4651470407068621  0.1770974865401896  0.17045772147168514          1.0000   
         H         H         1.0       0.004781934952268068          0.17122234778663437          0.18002138900717954          1.0000   
         H         H         1.0       0.9894853120141943  0.16062485725058528           0.20490354976695885          1.0000   
         H         H         1.0       0.4740793298270862  0.19461525694388426           0.15895998577064757          1.0000   
         H         H         1.0       0.4517384811780388  0.18021521675379992           0.18085024840618744          1.0000   
         C         C         1.0       0.2456275691599744  0.37319900280688734           0.17641422729416587          1.0000   
         C         C         1.0       0.251563056350598   0.3947323374252951  0.15915697327409467          1.0000   
         H         H         1.0       0.26462647891140334           0.37851889470106975          0.18579919916100815          1.0000   
         H         H         1.0       0.24242765739240768           0.3533730211176418 0.1713067152541522 1.0000   
         H         H         1.0       0.24257893528245617           0.3838812756302033 0.14451648917576188          1.0000   
         H         H         1.0       0.24072130450866197           0.4051129909978168 0.16249833173738099          1.0000   
         C         C         1.0       0.16481259339522894           0.4412786769843684 0.29323418124043493          1.0000   
         C         C         1.0       0.18507230918362355           0.4339326607310348 0.2838013462877902 1.0000   
         H         H         1.0       0.16734252167343686           0.4577436261858801 0.28333986591358995          1.0000   
         H         H         1.0       0.1439336820751746  0.4235323672124276  0.29363910692121487          1.0000   
         H         H         1.0       0.19583363771862597           0.4299933254905235 0.2961053821449167 1.0000   
         H         H         1.0       0.2006317094274234  0.45074632368578466           0.2753356106608746 1.0000   
         C         C         1.0       0.42603959095566185           0.3548590280378248 0.3944680242669954 1.0000   
         C         C         1.0       0.4486182226416633  0.3528654610335815  0.40612008053409837          1.0000   
         H         H         1.0       0.41068243563824797           0.3487328951077154 0.4058201666583611 1.0000   
         H         H         1.0       0.43358540967678044           0.3767050565669197 0.39227857551441053          1.0000   
         H         H         1.0       0.461920585147395   0.370396425164497   0.41532186318585895          1.0000   
         H         H         1.0       0.4629588635958723  0.35168530778190127           0.3936044909178335 1.0000   
         C         C         1.0       0.4124420319824194  0.455175027946536   0.22504269637165922          1.0000   
         C         C         1.0       0.40479632178239494           0.4255857668932901 0.23175387863234   1.0000   
         H         H         1.0       0.4102372904401714  0.4665531162595027  0.23843030186084183          1.0000   
         H         H         1.0       0.4345260516367344  0.46663064770108087           0.2207702988047381 1.0000   
         H         H         1.0       0.4209946234378526  0.42613843635200105           0.2423401766460418 1.0000   
         H         H         1.0       0.40463203383979646           0.41313750953098904          0.21904121215124936          1.0000   
         C         C         1.0       0.45395138424182796           0.3022459457166632 0.2726390874547457 1.0000   
         C         C         1.0       0.45312282816658506           0.306955120656546  0.24957811710966504          1.0000   
         H         H         1.0       0.4738991527730923  0.31647284725215097           0.2802747159954054 1.0000   
         H         H         1.0       0.4520395650101195  0.2814077590175948  0.2739294829850656 1.0000   
         H         H         1.0       0.4310698434311838  0.29317579647999414           0.24336141729038574          1.0000   
         H         H         1.0       0.45812009529848785           0.32822610320146334          0.24623399733489099          1.0000   
         C         C         1.0       0.2042684968769755  0.2600462012832802  0.24744318414475963          1.0000   
         C         C         1.0       0.18014873684868868           0.2575147094231637 0.2607736641962607 1.0000   
         H         H         1.0       0.19760648430590494           0.2600442107974387 0.23171788942990984          1.0000   
         H         H         1.0       0.20563063561412037           0.24151420591861397          0.24862221266585038          1.0000   
         H         H         1.0       0.16386375277077245           0.23632333800214494          0.2609707843699432 1.0000   
         H         H         1.0       0.18607694549128748           0.25988566359890464          0.27692298503827134          1.0000   
         C         C         1.0       0.2835925040306825  0.1937373861482812  0.34831551922173776          1.0000   
         C         C         1.0       0.3027425881841607  0.18498933745085383           0.35936860187248587          1.0000   
         H         H         1.0       0.26974841155522855           0.17935682318654894          0.3368759718805028 1.0000   
         H         H         1.0       0.2688166420773003  0.1925832531468372  0.3596216278857133 1.0000   
         H         H         1.0       0.3164137300058696  0.20172729510797813           0.3700244291762228 1.0000   
         H         H         1.0       0.31618863643796974           0.1833428025141623 0.34793496037786886          1.0000   
         C         C         1.0       0.2550050599144231  0.40228888193463136           0.3249317705137371 1.0000   
         C         C         1.0       0.2713263491315825  0.4233854999120101  0.3418221891620936 1.0000   
         H         H         1.0       0.24911769600894995           0.4124225503331093 0.3125204790000246 1.0000   
         H         H         1.0       0.23540701529445945           0.38489902462967013          0.3289630820692713 1.0000   
         H         H         1.0       0.2761853944976539  0.411745974318515   0.3532121189226384 1.0000   
         H         H         1.0       0.2919149773916086  0.4381324848429057  0.3364430780009223 1.0000   
         C         C         1.0       0.4253383485587196  0.9874676492482808  0.7860135635283173 1.0000   
         C         C         1.0       0.45085392592241696           0.015605677380250019         0.7818201969810993 1.0000   
         H         H         1.0       0.4513171342430701  0.5007388865895717  0.8141255457681944 1.0000   
         H         H         1.0       0.4312193065909659  0.5029999875749582  0.7959454368919132 1.0000   
         H         H         1.0       0.46212647911684807           0.023592918756934384         0.7971208565583031 1.0000   
         H         H         1.0       0.46589731413141827           0.01295164746353846          0.7720246527426091 1.0000   
         C         C         1.0       0.30283924196930123           0.03998431358977122          0.8475954780635341 1.0000   
         C         C         1.0       0.28585482723783856           0.010959843506240421         0.8557456305945035 1.0000   
         H         H         1.0       0.316594458155838   0.041512005433936634         0.8360272224423699 1.0000   
         H         H         1.0       0.3146023876807567  0.0527750579351988  0.8601424238491595 1.0000   
         H         H         1.0       0.275015820634722   0.01075544974740564           0.8695175633787925 1.0000   
         H         H         1.0       0.26372161389569243           0.5054282256505733 0.848199821158355  1.0000   
         C         C         1.0       0.26907041571664647           0.27549224004836803          0.8682369488640543 1.0000   
         C         C         1.0       0.2836317532865815  0.2717333956335638  0.8494466995203728 1.0000   
         H         H         1.0       0.24729552867393842           0.2707161200843223 0.8639840384493206 1.0000   
         H         H         1.0       0.26706577415910726           0.2595071392313426 0.8795284721779818 1.0000   
         H         H         1.0       0.3042817114380647  0.2762530557939403  0.8535096600900075 1.0000   
         H         H         1.0       0.28712212759005107           0.2885921514220011 0.8381328309676592 1.0000   
         C         C         1.0       0.4194000645472854  0.3781146143189983  0.9623752372703887 1.0000   
         C         C         1.0       0.4147795853489975  0.40303101887710097           0.9616156563623167 1.0000   
         H         H         1.0       0.4421897665830297  0.38726640313628813           0.9630895008326502 1.0000   
         H         H         1.0       0.41226926123919644           0.3654868308178184 0.9482321504591864 1.0000   
         H         H         1.0       0.4327326013612189  0.42094059590851046           0.9538928738170639 1.0000   
         H         H         1.0       0.4154895270814944  0.4120530619947376  0.9765721660833073 1.0000   
         C         C         1.0       0.4655333901519644  0.04723745202871386           0.06069558532963221          1.0000   
         C         C         1.0       0.0020409442739871345         0.07919450205310015          0.06400174568624815          1.0000   
         H         H         1.0       0.4636130794474794  0.029114476422048306         0.06984314062572979          1.0000   
         H         H         1.0       0.45516790951095815           0.036679741158081224         0.04652961521985002          1.0000   
         H         H         1.0       0.011717804901400215          0.09237088287714494          0.07774771531800186          1.0000   
         H         H         1.0       0.015224785326561921          0.07005202620059607          0.06160352795632479          1.0000   
         C         C         1.0       0.11290786108141916           0.11662780211530836          0.9081744890770812 1.0000   
         C         C         1.0       0.13497852918176764           0.10914712973207197          0.9046326583447594 1.0000   
         H         H         1.0       0.09734066451798615           0.09929563038677787          0.9165281787058589 1.0000   
         H         H         1.0       0.10454949919659177           0.11794511244589395          0.8932176576108424 1.0000   
         H         H         1.0       0.12436171497867353           0.08650888217595926          0.9031582988733639 1.0000   
         H         H         1.0       0.14936644647515354           0.11370980780050978          0.9182327147066458 1.0000   
         C         C         1.0       0.4651709258843114  0.062499471719087415         0.9081951628617397 1.0000   
         C         C         1.0       0.4565166847024663  0.06115677367419735           0.9305025544397576 1.0000   
         H         H         1.0       0.4755412109531197  0.08490651294679585           0.9027887772082959 1.0000   
         H         H         1.0       0.48338037366481235           0.06063796789997592          0.9073214508177594 1.0000   
         H         H         1.0       0.4551360167576399  0.04328505906439066           0.9379748043512218 1.0000   
         H         H         1.0       0.436599971102472   0.05792951525307603           0.932198741867021  1.0000   
         C         C         1.0       0.1830975046486747  0.32453879822071313           0.9283967636133263 1.0000   
         C         C         1.0       0.2067261450283027  0.34427018170383944           0.9431089738498706 1.0000   
         H         H         1.0       0.19044329201116117           0.32890931156712616          0.912207713423605  1.0000   
         H         H         1.0       0.1658258770139603  0.3286795753499812  0.9291327727899487 1.0000   
         H         H         1.0       0.20372880617261888           0.33577742295161084          0.9583626566053131 1.0000   
         H         H         1.0       0.20576396729047247           0.36226792597118884          0.9468948330130524 1.0000   
         C         C         1.0       0.029936077579973727          0.26621850609050035          0.04705140300899857          1.0000   
         C         C         1.0       0.03905673671006859           0.2660909378834259 0.024986906052047207         1.0000   
         H         H         1.0       0.032266132762886195          0.25158187745863264          0.0562762956379245 1.0000   
         H         H         1.0       0.046652683572263806          0.28572977119611287          0.05380667698288261          1.0000   
         H         H         1.0       0.061568348960979034          0.2811838935292535 0.023727461377272316         1.0000   
         H         H         1.0       0.02855787176671141           0.2745106372763432 0.014897561910292196         1.0000   
         C         C         1.0       0.24772188970977516           0.2599305503013877 0.0031380398696089482        1.0000   
         C         C         1.0       0.25164379767103795           0.24352225461216795          0.020319355520974004         1.0000   
         H         H         1.0       0.2510871433516161  0.2799138235372602  0.008517743711905742         1.0000   
         H         H         1.0       0.2643735489716673  0.26558868762609117           0.9924102605100771 1.0000   
         H         H         1.0       0.2449522110200315  0.22215076768656974           0.013710017377310417         1.0000   
         H         H         1.0       0.23711242602756788           0.23778827378919906          0.03299051057366771          1.0000   
         C         C         1.0       0.026413819004224567          0.7398982930263194 0.022512884457390903         1.0000   
         C         C         1.0       0.03955155110209055           0.7302078668153944 0.03463397593451189          1.0000   
         C         C         1.0       0.040300576414796195          0.7074144809705338 0.028607111329427337         1.0000   
         C         C         1.0       0.025655029096322366          0.6915584069203226 0.012546197501088065         1.0000   
         C         C         1.0       0.011210363053779395          0.7013675058818035 0.0009333132438851255        1.0000   
         C         C         1.0       0.01341420401447836           0.7259787559938031 0.00522828829261468          1.0000   
         H         H         1.0       0.04893211941942372           0.7399791660028312 0.04899386436584183          1.0000   
         H         H         1.0       0.05148831755181454           0.7002166998198226 0.03806534513362533          1.0000   
         H         H         1.0       0.0020570813636033728         0.6935980727507529 0.9867576741491428 1.0000   
         H         H         1.0       0.0041769990262658365         0.7347994942494606 0.9952064064253429 1.0000   
         C         C         1.0       0.4815910833760247  0.6351219200977181  0.9881636892792982 1.0000   
         C         C         1.0       0.005529514176038076          0.6452716552420462 0.9910699817506332 1.0000   
         C         C         1.0       0.010858023210467152          0.6312052704647468 0.9769601396019961 1.0000   
         C         C         1.0       0.49738305598264465           0.6119415582575048 0.9576984139247344 1.0000   
         C         C         1.0       0.46954742523793475           0.6032644873822312 0.960410903681694  1.0000   
         C         C         1.0       0.4623440629185508  0.6167501720223904  0.9748466652981775 1.0000   
         C         C         1.0       0.028290865127233323          0.664739292583084  0.007208098448186564         1.0000   
         C         C         1.0       0.024343646643428495          0.6451217488766368 0.026274780472433812         1.0000   
         C         C         1.0       0.031030073366938835          0.6247141869138657 0.023036235917008947         1.0000   
         C         C         1.0       0.02577187962916989           0.6057296652543912 0.03743244888699767          1.0000   
         C         C         1.0       0.016964335163278423          0.6068322379244908 0.05655289119712895          1.0000   
         C         C         1.0       0.012404993996716318          0.62805964819778   0.06012929247598085          1.0000   
         C         C         1.0       0.015081634787172612          0.6465617119503914 0.04578335785214739          1.0000   
         C         C         1.0       0.06450381998521597           0.6915364598615535 0.9784943712678247 1.0000   
         C         C         1.0       0.09017406252826383           0.7026635137021994 0.9700616369034928 1.0000   
         C         C         1.0       0.11140218498172097           0.7020836496887943 0.9811734043867207 1.0000   
         C         C         1.0       0.10601054213100251           0.6899914045779226 0.9998494714065053 1.0000   
         C         C         1.0       0.08114356254753025           0.6804750320979465 0.008117696551395923         1.0000   
         C         C         1.0       0.058517900611558406          0.6802601258616814 0.9979331603059122 1.0000   
         C         C         1.0       0.1391230771457121  0.7140461257877675  0.9696941041264812 1.0000   
         C         C         1.0       0.1151820035534514  0.6503223049340513  0.9235599613453142 1.0000   
         C         C         1.0       0.11224641443626535           0.6717072404463547 0.9196793696070602 1.0000   
         C         C         1.0       0.12121722414502635           0.6934292583428657 0.9328361273477943 1.0000   
         C         C         1.0       0.130539502276149   0.6914823548810796  0.9518858222630445 1.0000   
         C         C         1.0       0.13002420297195574           0.6670402676999828 0.9573262143275098 1.0000   
         C         C         1.0       0.12424510192317782           0.6468294933651826 0.9424408276665827 1.0000   
         C         C         1.0       0.16671819276284053           0.7208948798806393 0.9828353055349096 1.0000   
         C         C         1.0       0.17049739218669532           0.7348106917039618 0.0008712341563854586        1.0000   
         C         C         1.0       0.19494279088493366           0.7492878137090863 0.009797552398376928         1.0000   
         C         C         1.0       0.21745723126214989           0.7481062099542922 0.00234906595992502          1.0000   
         C         C         1.0       0.21397491594449702           0.731226855046053  0.986038283989305  1.0000   
         C         C         1.0       0.1886978742514077  0.7177097242781789  0.9763095492811835 1.0000   
         C         C         1.0       0.16836154002398682           0.7549133386754261 0.9463818158544336 1.0000   
         C         C         1.0       0.18006355171222893           0.7819522534829927 0.9414508661881491 1.0000   
         C         C         1.0       0.17215372367554774           0.7988440020047859 0.9509065304269188 1.0000   
         C         C         1.0       0.15115291896130995           0.7874232256169604 0.9647351751683756 1.0000   
         C         C         1.0       0.14235232451040122           0.7615826920199142 0.9713601234149405 1.0000   
         C         C         1.0       0.14985455754970056           0.7445387723894292 0.9618404487189589 1.0000   
         H         H         1.0       0.47568599914432785           0.644424491386454  0.00036138288051756895       1.0000   
         H         H         1.0       0.032162315018495084          0.6383061553580206 0.9731674883701478 1.0000   
         H         H         1.0       0.9937756345011733  0.5991891613696274  0.9535022595665036 1.0000   
         H         H         1.0       0.44091018006649346           0.6100622367904384 0.9790845441479463 1.0000   
         H         H         1.0       0.038645745546914224          0.6228391690577239 0.008447332849545412         1.0000   
         H         H         1.0       0.027459013116600876          0.5879334697555738 0.034037022962711654         1.0000   
         H         H         1.0       0.4984519174567245  0.6239254764876448  0.0648335452906715 1.0000   
         H         H         1.0       0.503367385148479   0.6548410752985442  0.03807019866325767          1.0000   
         H         H         1.0       0.04775543250242778           0.6922752948874097 0.970359868698088  1.0000   
         H         H         1.0       0.09469287937653337           0.7140462620706962 0.9555636234846006 1.0000   
         H         H         1.0       0.12181774262312842           0.6880907356967584 0.007812269516717158         1.0000   
         H         H         1.0       0.07651803600848113           0.6716330818277068 0.023321133492955295         1.0000   
         H         H         1.0       0.10640668292306162           0.6740683096548689 0.9043938289402146 1.0000   
         H         H         1.0       0.11784076370158438           0.7100885850584673 0.9284732565776297 1.0000   
         H         H         1.0       0.13937455109688662           0.6656954789350258 0.9721634454881947 1.0000   
         H         H         1.0       0.12574562193436012           0.6299027452425994 0.9471797509541133 1.0000   
         H         H         1.0       0.15363093636104708           0.7353906097535338 0.008407440140893502         1.0000   
         H         H         1.0       0.19871064242387104           0.7631182736795754 0.021577820868621315         1.0000   
         H         H         1.0       0.23104570579545047           0.7304612391960098 0.9806319063246952 1.0000   
         H         H         1.0       0.18494977662493728           0.7049481088990462 0.9633984470204654 1.0000   
         H         H         1.0       0.17540101085764348           0.743551918614783  0.9379127901722898 1.0000   
         H         H         1.0       0.1931722271359128  0.7891053286433736  0.9294119472823141 1.0000   
         H         H         1.0       0.13951375868715107           0.7959765027874289 0.9708867132687827 1.0000   
         H         H         1.0       0.12789505302965196           0.7537108525119551 0.9829914160720975 1.0000   
         C         C         1.0       0.29962419870508744           0.5115035572319802 0.8663030485872487 1.0000   
         C         C         1.0       0.3028963161387715  0.9796234345529103  0.8473085853143575 1.0000   
         C         C         1.0       0.32459889671039777           0.9744159858052367 0.8473759215737559 1.0000   
         C         C         1.0       0.3465584182444497  0.9877309331008628  0.8609392840576046 1.0000   
         C         C         1.0       0.3368373385486626  0.5166985563175174  0.8877743412043949 1.0000   
         C         C         1.0       0.31652879714472515           0.5227081789184651 0.8830727079151923 1.0000   
         H         H         1.0       0.28721213216851854           0.9717196156798477 0.835197572924471  1.0000   
         H         H         1.0       0.32520764483840403           0.9611228910921288 0.8356023927178065 1.0000   
         H         H         1.0       0.3489697168903105  0.524168345876163   0.9020542103286785 1.0000   
         H         H         1.0       0.3157195946273877  0.5390557838322799  0.8928434902314576 1.0000   
         C         C         1.0       0.4018150182150761  0.5436827225276645  0.8915083232996096 1.0000   
         C         C         1.0       0.3892721396071674  0.5149017856707018  0.8933296063491752 1.0000   
         C         C         1.0       0.39767595214395074           0.5038128665500144 0.909321745744247  1.0000   
         C         C         1.0       0.41852688105441915           0.521215603834571  0.9221741079871458 1.0000   
         C         C         1.0       0.4313836768222996  0.549468256281564   0.9188423364488324 1.0000   
         C         C         1.0       0.4228034345907959  0.5601849495746198  0.9036133026656463 1.0000   
         C         C         1.0       0.3690919826755873  0.9799201969089265  0.862216022313883  1.0000   
         C         C         1.0       0.38146758187680874           0.9810821753106019 0.8404589913252397 1.0000   
         C         C         1.0       0.3962117841620887  0.9673834174990951  0.8378700867979426 1.0000   
         C         C         1.0       0.4106149374636461  0.970040665024936   0.8205836905506662 1.0000   
         C         C         1.0       0.4198789084015107  0.5083543505884681  0.8260726725397951 1.0000   
         C         C         1.0       0.4028480734385895  0.5192571527318307  0.8259881290770844 1.0000   
         C         C         1.0       0.385576290476808   0.5146732354274274  0.8422397781084454 1.0000   
         C         C         1.0       0.3490129237511424  0.9503751761639415  0.8942089408528202 1.0000   
         C         C         1.0       0.33421745447115236           0.9265378414716257 0.9043472412443513 1.0000   
         C         C         1.0       0.325530311480622   0.901694601620928   0.895158709781356  1.0000   
         C         C         1.0       0.33343399698712217           0.902642094443149  0.8749538947244881 1.0000   
         C         C         1.0       0.34522574740503187           0.9265418760141836 0.8638114952802998 1.0000   
         C         C         1.0       0.3546388384194089  0.9514547845913993  0.87368104700762   1.0000   
         C         C         1.0       0.3123241645636388  0.8755023541608203  0.90910811879967   1.0000   
         C         C         1.0       0.3889837843514941  0.8922664379313372  0.9409949749246214 1.0000   
         C         C         1.0       0.3686948710213027  0.8944300036598524  0.9512019641893379 1.0000   
         C         C         1.0       0.34410917765452814           0.8891555267305021 0.9416731682764102 1.0000   
         C         C         1.0       0.33937745075891357           0.8809225089140776 0.9218924885332099 1.0000   
         C         C         1.0       0.36165987143190226           0.8818247893965321 0.9108675347860646 1.0000   
         C         C         1.0       0.38614123597191696           0.8882005559987485 0.9202427743242677 1.0000   
         C         C         1.0       0.3008823850239262  0.8466168873102305  0.8984155433865939 1.0000   
         C         C         1.0       0.2821727921432508  0.8407092118366287  0.8823865355265226 1.0000   
         C         C         1.0       0.2663237666625659  0.8142793324550515  0.8753489981422548 1.0000   
         C         C         1.0       0.2701015064991212  0.7944813128078361  0.8827704995321539 1.0000   
         C         C         1.0       0.28902926464174916           0.7995253585810892 0.8978898863367811 1.0000   
         C         C         1.0       0.30381825863528633           0.8248883239983957 0.9059919500070488 1.0000   
         C         C         1.0       0.2785761747506405  0.8532174217860741  0.9388038357174663 1.0000   
         C         C         1.0       0.2558043899806634  0.8455109674304725  0.9495561816349153 1.0000   
         C         C         1.0       0.2389435838859426  0.8560241630139898  0.9445655647588352 1.0000   
         C         C         1.0       0.24503554344266126           0.8727957747355258 0.928239086143837  1.0000   
         C         C         1.0       0.26700125111059886           0.879568817933763  0.9164565166134505 1.0000   
         C         C         1.0       0.28634301025316194           0.8709748882952962 0.9221155814166802 1.0000   
         H         H         1.0       0.39359994080699395           0.5530402457683522 0.8815129159276575 1.0000   
         H         H         1.0       0.4053022399956799  0.974611104850331   0.8878513705595564 1.0000   
         H         H         1.0       0.4267903947639915  0.5124194121690561  0.9334273590739983 1.0000   
         H         H         1.0       0.4311585101993394  0.5811907913323026  0.902295321370417  1.0000   
         H         H         1.0       0.3978958331414133  0.9532891611226741  0.8487583597824195 1.0000   
         H         H         1.0       0.4238386591810146  0.9611080077723131  0.8200803752149304 1.0000   
         H         H         1.0       0.40332652204701047           0.5313315960753607 0.8134255388887438 1.0000   
         H         H         1.0       0.3738738283847105  0.5242152799771364  0.8412507359040272 1.0000   
         H         H         1.0       0.35760944671080236           0.9694185918845167 0.9030391578174005 1.0000   
         H         H         1.0       0.3308519728253229  0.9286399367655421  0.9201148673866163 1.0000   
         H         H         1.0       0.32975096740066673           0.8855795161569949 0.8651364031611025 1.0000   
         H         H         1.0       0.34841761988464603           0.925210201483063  0.8476413307494526 1.0000   
         H         H         1.0       0.37059427847648757           0.8980613341855066 0.9669026184842687 1.0000   
         H         H         1.0       0.3305426382416439  0.8920864238177221  0.9524656309079713 1.0000   
         H         H         1.0       0.36124662235866245           0.8789614401314148 0.8946578086142342 1.0000   
         H         H         1.0       0.4044789603286438  0.8939155926315048  0.9110974569501087 1.0000   
         H         H         1.0       0.2777316727047813  0.855278831767551   0.87617808253078   1.0000   
         H         H         1.0       0.2519350457355798  0.8107906018299079  0.8636056309165694 1.0000   
         H         H         1.0       0.2925428687316963  0.7826094427165312  0.9026973213379318 1.0000   
         H         H         1.0       0.3207639210404064  0.8309774246778303  0.9171741190021326 1.0000   
         H         H         1.0       0.29028473776871677           0.8443518687564682 0.9441096641881145 1.0000   
         H         H         1.0       0.25120754210079443           0.8312075861300834 0.9616538260393345 1.0000   
         H         H         1.0       0.23137588107583804           0.8812114040146368 0.924667135058426  1.0000   
         H         H         1.0       0.27131654970825686           0.891504159555441  0.9025133878347742 1.0000   
         C         C         1.0       0.30463693148615123           0.7363948342806095 0.35009748807825364          1.0000   
         C         C         1.0       0.31364074817145315           0.7579604305534148 0.36328928123166715          1.0000   
         C         C         1.0       0.33275412600970355           0.783468326745453  0.3575383244698977 1.0000   
         C         C         1.0       0.3468763514397776  0.7873881066078945  0.33922271695034484          1.0000   
         C         C         1.0       0.33713801376089786           0.7657070543825117 0.32547407286003943          1.0000   
         C         C         1.0       0.3176731958385619  0.7408061468007386  0.33128704409072585          1.0000   
         H         H         1.0       0.30334863344938506           0.7559013860429773 0.3775675512441503 1.0000   
         H         H         1.0       0.34066651778637524           0.8002022418419412 0.3681841422460996 1.0000   
         H         H         1.0       0.3464642539086946  0.7681515854864482  0.3114403531367393 1.0000   
         H         H         1.0       0.31326950988997854           0.7230338476459641 0.32125032727187797          1.0000   
         C         C         1.0       0.4030518724858097  0.7967754815582271  0.32278756540174824          1.0000   
         C         C         1.0       0.39415011944082906           0.8156806015622908 0.31996645519522143          1.0000   
         C         C         1.0       0.40901935368336806           0.8368227977874527 0.3057222454559336 1.0000   
         C         C         1.0       0.4312571344108008  0.8380837006413222  0.2958664056211641 1.0000   
         C         C         1.0       0.4372105614333492  0.8173988069287831  0.2988566907014151 1.0000   
         C         C         1.0       0.42340013046273717           0.7968826843521558 0.3122138736728251 1.0000   
         C         C         1.0       0.3719928795150199  0.8167170971505734  0.334083924845437  1.0000   
         C         C         1.0       0.3916820245561541  0.8319257153339784  0.3523909945675374 1.0000   
         C         C         1.0       0.4067956192574407  0.8599676859228927  0.3537502077651931 1.0000   
         C         C         1.0       0.42326349360450666           0.8735389622519203 0.3711024551245605 1.0000   
         C         C         1.0       0.4237907395550888  0.8578542046729304  0.3870227910176969 1.0000   
         C         C         1.0       0.40971700510434916           0.829887196893088  0.3847850511371003 1.0000   
         C         C         1.0       0.3949274379514125  0.8180146721502267  0.36781644930339247          1.0000   
         C         C         1.0       0.34532029518621576           0.8219576061511834 0.3044093033030608 1.0000   
         C         C         1.0       0.3302354008773209  0.8323194428623434  0.2967838857333502 1.0000   
         C         C         1.0       0.32262981890423725           0.8486806001497168 0.3071583452978575 1.0000   
         C         C         1.0       0.3332348004649969  0.85626385532399    0.32564897518579605          1.0000   
         C         C         1.0       0.3522190568273047  0.8491306800057064  0.33302067964665094          1.0000   
         C         C         1.0       0.3567314646624088  0.8303235507906085  0.323365183029721  1.0000   
         C         C         1.0       0.30288533790160094           0.8589524154897284 0.29761504687386875          1.0000   
         C         C         1.0       0.36065048790121945           0.9309247535920939 0.26527059681677545          1.0000   
         C         C         1.0       0.34611641819845296           0.9057869497395551 0.2551852669397222 1.0000   
         C         C         1.0       0.3286528253653355  0.8825878003426216  0.266112173444977  1.0000   
         C         C         1.0       0.32382304033082415           0.884006812427721  0.285623478009853  1.0000   
         C         C         1.0       0.3395311181787728  0.9085767966024073  0.2957905250950928 1.0000   
         C         C         1.0       0.3576907124712154  0.9319472545117521  0.28555662975993196          1.0000   
         C         C         1.0       0.2850205127801282  0.8663742407350896  0.31234714828573573          1.0000   
         C         C         1.0       0.27557368731793563           0.8551777772073549 0.3319680628414269 1.0000   
         C         C         1.0       0.2614491637937625  0.8624333615198433  0.34451501581610194          1.0000   
         C         C         1.0       0.2527279710862597  0.8793061652898194  0.337837925258266  1.0000   
         C         C         1.0       0.2601845143190364  0.8903500203031353  0.31900724911172773          1.0000   
         C         C         1.0       0.27467110804862027           0.8827488868274233 0.3059851397106579 1.0000   
         C         C         1.0       0.2627549539590651  0.8341760800503774  0.27133654954460107          1.0000   
         C         C         1.0       0.23742108952193364           0.8130667435964339 0.26582231029136943          1.0000   
         C         C         1.0       0.225024979240834   0.7889397260077439  0.2778501489731254 1.0000   
         C         C         1.0       0.23988276673186829           0.785695278489677  0.2932121437864589 1.0000   
         C         C         1.0       0.2658783371513044  0.8064920614574869  0.2977721564737956 1.0000   
         C         C         1.0       0.2769127901073909  0.8323380884628444  0.28846588473521473          1.0000   
         H         H         1.0       0.39367017910844754           0.781886050273921  0.334521531709188  1.0000   
         H         H         1.0       0.40495004959807757           0.8541611943937919 0.3040720808998535 1.0000   
         H         H         1.0       0.44204845526748665           0.8549530336220843 0.28577148183270257          1.0000   
         H         H         1.0       0.43028479484466564           0.7821017845719438 0.3140418242651442 1.0000   
         H         H         1.0       0.40594526846448475           0.8717933826692728 0.34167180102575384          1.0000   
         H         H         1.0       0.43129435524962045           0.895472969330375  0.3732279983699182 1.0000   
         H         H         1.0       0.40851357990948334           0.8163092928262614 0.39659650287723486          1.0000   
         H         H         1.0       0.38594258886324984           0.7965394907296929 0.3671947775264626 1.0000   
         H         H         1.0       0.34997810283667674           0.8071712054125494 0.29729159636564084          1.0000   
         H         H         1.0       0.32205998653007123           0.8281169500912957 0.28133681986513864          1.0000   
         H         H         1.0       0.32989193271529627           0.8698083598545262 0.3341774830139446 1.0000   
         H         H         1.0       0.3625172809016736  0.8571493353930482  0.34713996759820454          1.0000   
         H         H         1.0       0.34935603506715585           0.905124399826053  0.23897269440813926          1.0000   
         H         H         1.0       0.31802502628184637           0.8621809337978855 0.25950694723645323          1.0000   
         H         H         1.0       0.33958355951127894           0.9093339333994214 0.3114962503538873 1.0000   
         H         H         1.0       0.3709598021130696  0.9518879027289759  0.29492677381061116          1.0000   
         H         H         1.0       0.28000474803303993           0.8398345266799866 0.33887073502413034          1.0000   
         H         H         1.0       0.25388958484181373           0.8524198310379403 0.3588987294002701 1.0000   
         H         H         1.0       0.25307057203115146           0.9042109672448121 0.31497305420144006          1.0000   
         H         H         1.0       0.2793802411341854  0.8897183212460853  0.2910609245054384 1.0000   
         H         H         1.0       0.26980220093829843           0.8527597931096809 0.26264152378353656          1.0000   
         H         H         1.0       0.22657270720851602           0.818245163397921  0.25424730929078426          1.0000   
         H         H         1.0       0.23242468385185444           0.7683661107878667 0.30302478654719817          1.0000   
         H         H         1.0       0.273111077743457   0.8012324935490569  0.3109676441817945 1.0000   
         C         C         1.0       0.003805690273304215          0.7089045162458274 0.2033556726872411 1.0000   
         C         C         1.0       0.0216029589304974  0.7277697643197975  0.18984331197686194          1.0000   
         C         C         1.0       0.03428746768374681           0.7549710932462278 0.19453362949128128          1.0000   
         C         C         1.0       0.028771097814843025          0.7643031776128665 0.2119206766328636 1.0000   
         C         C         1.0       0.011507589431225217          0.7439640789388193 0.226624194501421  1.0000   
         C         C         1.0       0.00015866645162233178        0.7167262622789454 0.22270819175001164          1.0000   
         H         H         1.0       0.021744794750875145          0.7193275868298225 0.1745446118628466 1.0000   
         H         H         1.0       0.04718704912019617           0.7694347467732159 0.18325137067315497          1.0000   
         H         H         1.0       0.002160424893502389          0.7489316003172972 0.23865628301513406          1.0000   
         H         H         1.0       0.9871826944842672  0.7028204281647726  0.2338201494425594 1.0000   
         C         C         1.0       0.48036949947638385           0.7801552593488287 0.2269442169889776 1.0000   
         C         C         1.0       0.01986722987190243           0.8032181419712706 0.22658143658443142          1.0000   
         C         C         1.0       0.031194879892068005          0.8258070322978948 0.23982690125517114          1.0000   
         C         C         1.0       0.500495294376399   0.8239592948302018  0.2535152035971712 1.0000   
         C         C         1.0       0.4728431327070324  0.8063029545677332  0.2520619476531324 1.0000   
         C         C         1.0       0.4626806261622737  0.7848579201395074  0.23859326810446682          1.0000   
         C         C         1.0       0.03852263115513089           0.7960420427525287 0.21275569270861533          1.0000   
         C         C         1.0       0.03465583547754809           0.8103427709014711 0.19247722246249319          1.0000   
         C         C         1.0       0.04735595400694638           0.8383846996466456 0.189319287200885  1.0000   
         C         C         1.0       0.040516359307315064          0.849227112723984  0.1721794843465375 1.0000   
         C         C         1.0       0.022883207240418008          0.8315097803468436 0.15828614904003227          1.0000   
         C         C         1.0       0.009756113791358424          0.8037557046339491 0.16130632599440803          1.0000   
         C         C         1.0       0.013357880016297757          0.7946502349395371 0.17926268352815938          1.0000   
         C         C         1.0       0.07404881423833125           0.8034004248009837 0.2413946359426929 1.0000   
         C         C         1.0       0.09895122568972756           0.8155952631932231 0.2492240619913312 1.0000   
         C         C         1.0       0.12157122635823327           0.8323737218836372 0.23821032225507419          1.0000   
         C         C         1.0       0.1171205203840583  0.837514555488537   0.21814029633630538          1.0000   
         C         C         1.0       0.09162422873420255           0.8248752387166941 0.21030025089884294          1.0000   
         C         C         1.0       0.06867288420985247           0.8081818033153289 0.22162729121103547          1.0000   
         C         C         1.0       0.1520259053709701  0.8469981159894839  0.24902782547144395          1.0000   
         C         C         1.0       0.13713993032898095           0.9055659998861251 0.28298653839696525          1.0000   
         C         C         1.0       0.13549620368141382           0.8821221498870888 0.29209663311755657          1.0000   
         C         C         1.0       0.14107729022349189           0.8648636480154748 0.28205641306702217          1.0000   
         C         C         1.0       0.14886708318698236           0.8690070235016928 0.26166962377407477          1.0000   
         C         C         1.0       0.1516311690840192  0.8928606600477303  0.2524421107418177 1.0000   
         C         C         1.0       0.14645574282978782           0.9109387592475848 0.2632624371107618 1.0000   
         C         C         1.0       0.1771947386654322  0.8612383851125416  0.2350554581347704 1.0000   
         C         C         1.0       0.17918322568274764           0.8476999026158568 0.21760870785655292          1.0000   
         C         C         1.0       0.20429338550228615           0.8566293100849671 0.207856599981864  1.0000   
         C         C         1.0       0.22720146611948894           0.8809451333274804 0.2145769853113448 1.0000   
         C         C         1.0       0.22414487466891603           0.895040500589601  0.23034084167527552          1.0000   
         C         C         1.0       0.20075460016565916           0.8840263791667193 0.24127730177700102          1.0000   
         C         C         1.0       0.145462742829584   0.7994387068642395  0.25192562923471246          1.0000   
         C         C         1.0       0.14885072133342706           0.7795406391794284 0.26168464317857065          1.0000   
         C         C         1.0       0.1655996758380536  0.7862671831837623  0.2792951116298543 1.0000   
         C         C         1.0       0.17733272126251587           0.8135785511957032 0.2858404328928985 1.0000   
         C         C         1.0       0.1746153954923135  0.832610006192318   0.2758947928898392 1.0000   
         C         C         1.0       0.1568164558234033  0.8253238941228878  0.25970166743414314          1.0000   
         H         H         1.0       0.473546633019003   0.7645429673010302  0.21484421778877622          1.0000   
         H         H         1.0       0.05269509243903037           0.8376235731869502 0.2405591992318799 1.0000   
         H         H         1.0       0.021831449872532587          0.855054944171066  0.2556247383419182 1.0000   
         H         H         1.0       0.44069846995442696           0.7701735756154654 0.23601506129070948          1.0000   
         H         H         1.0       0.0643435184331541  0.8516078925649734  0.19957485288971039          1.0000   
         H         H         1.0       0.05066832035588793           0.870565141674779  0.16945729980156798          1.0000   
         H         H         1.0       0.994488364926181   0.7904834411222064  0.15080254159201137          1.0000   
         H         H         1.0       0.9995346549820819  0.7739172112077681  0.1828677826654747 1.0000   
         H         H         1.0       0.056352731737332365          0.7910947749819912 0.2508847198466919 1.0000   
         H         H         1.0       0.10188613619442285           0.8119778503174517 0.2652922611912614 1.0000   
         H         H         1.0       0.13397803435138977           0.8524232961551659 0.2086637535315227 1.0000   
         H         H         1.0       0.09025541299607316           0.8271045031774633 0.19505069595749613          1.0000   
         H         H         1.0       0.1265981418838367  0.876067028095442   0.30659586599443633          1.0000   
         H         H         1.0       0.13955489996857184           0.8489566057553096 0.2909569469822368 1.0000   
         H         H         1.0       0.1582107632156232  0.8997707281399174  0.236964044289401  1.0000   
         H         H         1.0       0.14753691672874827           0.9271534536286192 0.2543089475389985 1.0000   
         H         H         1.0       0.16093232832702034           0.8295598043029287 0.21245297517126577          1.0000   
         H         H         1.0       0.20473399729756422           0.8429189753127305 0.19610169396766122          1.0000   
         H         H         1.0       0.24170525283678587           0.9141257266809946 0.23467308072686333          1.0000   
         H         H         1.0       0.20339226860212026           0.8926703283746605 0.2559215467511409 1.0000   
         H         H         1.0       0.13075144984268985           0.7914213909279091 0.2391364740484357 1.0000   
         H         H         1.0       0.13997670898786443           0.7584418649948815 0.25568225305194353          1.0000   
         H         H         1.0       0.19231923568605713           0.821027963885638  0.2989325365693567 1.0000   
         H         H         1.0       0.18836992966953067           0.8527406507537729 0.28221428685215866          1.0000   
         C         C         1.0       0.2831055163130324  0.9239884468626237  0.1750344360791967 1.0000   
         C         C         1.0       0.29439212455951896           0.9114350516101687 0.16398138689146083          1.0000   
         C         C         1.0       0.32022992500936925           0.9274238248762127 0.15542146231395387          1.0000   
         C         C         1.0       0.33447299864818997           0.9557164047595026 0.1577632873548781 1.0000   
         C         C         1.0       0.3217622813977678  0.9672256669161589  0.16829978881331287          1.0000   
         C         C         1.0       0.2979737554458778  0.9519814750984876  0.17789750704636353          1.0000   
         H         H         1.0       0.28548897551215324           0.8895790836025798 0.16393233188883083          1.0000   
         H         H         1.0       0.3307848468011228  0.9174768239807439  0.15012497910651112          1.0000   
         H         H         1.0       0.3320674727004261  0.9881558549457926  0.17205882512866225          1.0000   
         H         H         1.0       0.2909856191170729  0.962943434982694   0.1876055251107138 1.0000   
         C         C         1.0       0.36157082952041714           0.9482030114222969 0.11845217593900331          1.0000   
         C         C         1.0       0.37816762715127433           0.9614410000200678 0.13484332558965167          1.0000   
         C         C         1.0       0.4046391228539501  0.966598196133405   0.13528650953011306          1.0000   
         C         C         1.0       0.41526377980596124           0.9595282325949497 0.11875801707323597          1.0000   
         C         C         1.0       0.3974124219656119  0.9448233374926088  0.10304198278770972          1.0000   
         C         C         1.0       0.3707854199769607  0.9383848447275669  0.1035805588731706 1.0000   
         C         C         1.0       0.36634033304866065           0.9722971928478872 0.15331744594465954          1.0000   
         C         C         1.0       0.3765974979224824  0.9698070402902486  0.17529083988455   1.0000   
         C         C         1.0       0.38426676264467813           0.9901205995180792 0.18988539352880987          1.0000   
         C         C         1.0       0.3902426335497108  0.985410747823036   0.20941175043970187          1.0000   
         C         C         1.0       0.38921619705842336           0.9615761436400664 0.21456148972317024          1.0000   
         C         C         1.0       0.3817825729168649  0.9414249496227434  0.20031574000147173          1.0000   
         C         C         1.0       0.3753174999979828  0.9447257114927817  0.18098243103734807          1.0000   
         C         C         1.0       0.3629492475611812  0.5113145271395532  0.1291753326568868 1.0000   
         C         C         1.0       0.37394466167677937           0.5381442047140209 0.12213392289608993          1.0000   
         C         C         1.0       0.3978136695737396  0.5589758859792403  0.13004937766373068          1.0000   
         C         C         1.0       0.4120612528117559  0.552659916384309   0.14443048108980366          1.0000   
         C         C         1.0       0.40327739796270806           0.5255593977765743 0.14863720699548622          1.0000   
         C         C         1.0       0.3775913916498975  0.5045465934892214  0.143009074563567  1.0000   
         C         C         1.0       0.4141892881744854  0.5881545460395812  0.12040318833405453          1.0000   
         C         C         1.0       0.46854843696581805           0.570965046610561  0.08250021077755759          1.0000   
         C         C         1.0       0.44234454086473773           0.564271648904983  0.07616619966534767          1.0000   
         C         C         1.0       0.42639539592553694           0.5710433065256189 0.08772593211624818          1.0000   
         C         C         1.0       0.43524139247609733           0.5841460304464199 0.1058461180851491 1.0000   
         C         C         1.0       0.46095364456485555           0.5896468328656606 0.11283823239032453          1.0000   
         C         C         1.0       0.47731240759044324           0.5826831599827929 0.101213216379627  1.0000   
         C         C         1.0       0.42669843856138334           0.6112123795263876 0.13814068644659688          1.0000   
         C         C         1.0       0.41537834668252077           0.6092587320696399 0.1569308967589082 1.0000   
         C         C         1.0       0.42824528861287425           0.630197792767929  0.17031597910598012          1.0000   
         C         C         1.0       0.4505671289293616  0.6539810369877997  0.16472608292437135          1.0000   
         C         C         1.0       0.46251208884883105           0.6559405062726219 0.14682265857450658          1.0000   
         C         C         1.0       0.45047946505202047           0.6354774565571912 0.13229879029631791          1.0000   
         C         C         1.0       0.406114283046917   0.6145596231496094  0.0914260597756734 1.0000   
         C         C         1.0       0.38892480768366483           0.6220023946876283 0.0811943987425014 1.0000   
         C         C         1.0       0.36396078143629423           0.6144520528790783 0.08710381826041333          1.0000   
         C         C         1.0       0.35473329671278    0.59991729152975    0.10496359209980416          1.0000   
         C         C         1.0       0.3708388553695978  0.5927780184764584  0.11580292499888153          1.0000   
         C         C         1.0       0.3950191209880889  0.5966346194013379  0.10748481249360813          1.0000   
         H         H         1.0       0.34083251104894297           0.9441492577816119 0.11833989427007272          1.0000   
         H         H         1.0       0.4178233411621257  0.9750412465674453  0.1487208300238873 1.0000   
         H         H         1.0       0.4361826558366437  0.9625466890769392  0.11893400198905084          1.0000   
         H         H         1.0       0.3555776805034442  0.9257645951204407  0.09204120807422408          1.0000   
         H         H         1.0       0.38201829790579583           0.007547418831382657         0.18622536029242923          1.0000   
         H         H         1.0       0.39546933714761995           0.0028103917444011195        0.22059855932491446          1.0000   
         H         H         1.0       0.3800015784986705  0.9219596467782016  0.2046860545624144 1.0000   
         H         H         1.0       0.36819613353140396           0.926684365030305  0.17161563797455356          1.0000   
         H         H         1.0       0.34227103114583    0.9899567437668364  0.12583210248757137          1.0000   
         H         H         1.0       0.36270220615028764           0.5388006260820856 0.10905813518839672          1.0000   
         H         H         1.0       0.4303746943335273  0.5688509104509615  0.15215040358614823          1.0000   
         H         H         1.0       0.41508384784403485           0.5206845146845493 0.15924682883645055          1.0000   
         H         H         1.0       0.4373630355049809  0.5528692918602209  0.061688889152107726         1.0000   
         H         H         1.0       0.40493694375818395           0.564999885103386  0.08347660704417917          1.0000   
         H         H         1.0       0.46816113452555186           0.5994630722374811 0.12669610085986271          1.0000   
         H         H         1.0       0.9914009179742225  0.5831165371441406  0.11247097544293624          1.0000   
         H         H         1.0       0.3951615144191049  0.5929821178114537  0.1599394290727216 1.0000   
         H         H         1.0       0.4181164409801997  0.6292312215423311  0.1842233610327538 1.0000   
         H         H         1.0       0.48069038986717777           0.6729601838177915 0.14250604536220118          1.0000   
         H         H         1.0       0.46002050214023005           0.6384055254114444 0.11711827852147563          1.0000   
         H         H         1.0       0.42629637532424697           0.6209466075829768 0.08454930526961296          1.0000   
         H         H         1.0       0.3946643324670015  0.6312417354320304  0.0663645631514936 1.0000   
         H         H         1.0       0.33456216347781376           0.5932157519395475 0.10962789756505918          1.0000   
         H         H         1.0       0.3622968329018591  0.5811839390571947  0.12904110128164717          1.0000   
         C         C         1.0       0.2859291552269187  0.7610998184177682  0.029383722288791197         1.0000   
         C         C         1.0       0.3030125242526711  0.758783374229992   0.015162440652351125         1.0000   
         C         C         1.0       0.33061163428357343           0.776316212378224  0.016897395229638158         1.0000   
         C         C         1.0       0.34129115745176575           0.7958813262335733 0.03241692342039475          1.0000   
         C         C         1.0       0.324311099657738   0.7943958083535456  0.048216797256728915         1.0000   
         C         C         1.0       0.2971625175043147  0.7766027992924485  0.046121229810576786         1.0000   
         H         H         1.0       0.2938886877417946  0.7438874370612772  0.003133999946695054         1.0000   
         H         H         1.0       0.34549086475835894           0.7767028324351687 0.0056539121133612185        1.0000   
         H         H         1.0       0.33269138664336356           0.8071356945502336 0.062018991989085746         1.0000   
         H         H         1.0       0.28235978841287074           0.7767469898129652 0.05626214764440316          1.0000   
         C         C         1.0       0.36564365093397716           0.8553330802806288 0.04739990987253235          1.0000   
         C         C         1.0       0.3820083580254304  0.843636817507804   0.0454691617080107 1.0000   
         C         C         1.0       0.4073742818686534  0.8559734196537936  0.05617125253629709          1.0000   
         C         C         1.0       0.41321015826193486           0.8755713333648985 0.07021958817143495          1.0000   
         C         C         1.0       0.3952216564077333  0.8847525489828691  0.07341807072972305          1.0000   
         C         C         1.0       0.37088696614647443           0.8745043432629616 0.06272187068412378          1.0000   
         C         C         1.0       0.3723260062235188  0.8162516626953001  0.03215539525345858          1.0000   
         C         C         1.0       0.3839748374162473  0.8297900158890792  0.010734152744033136         1.0000   
         C         C         1.0       0.41166018985795544           0.8413810201089151 0.007447078320362413         1.0000   
         C         C         1.0       0.42097222611052065           0.8538254124847446 0.9887649697109799 1.0000   
         C         C         1.0       0.40524566917993327           0.8551973350613182 0.9732862089177546 1.0000   
         C         C         1.0       0.37715162902797483           0.8447895157151475 0.9771898499532228 1.0000   
         C         C         1.0       0.36751310134809784           0.8344377996575127 0.9965938389765924 1.0000   
         C         C         1.0       0.38375335792951115           0.7936878557144861 0.06195804655411217          1.0000   
         C         C         1.0       0.3953484653950185  0.7796061653927088  0.06982830448097459          1.0000   
         C         C         1.0       0.40965615899199537           0.7705049376642706 0.05763552525388972          1.0000   
         C         C         1.0       0.40674317321855846           0.7712574424977697 0.03646811851054866          1.0000   
         C         C         1.0       0.39387967174113164           0.7841623193796914 0.02808181722275464          1.0000   
         C         C         1.0       0.3843940459502828  0.7976505233413376  0.0407121847189984 1.0000   
         C         C         1.0       0.4273802036732592  0.7600266292190836  0.07048495689142757          1.0000   
         C         C         1.0       0.46562848453080385           0.8143867546969891 0.12266613187295541          1.0000   
         C         C         1.0       0.4534725338942418  0.7867060875936691  0.12575804569811858          1.0000   
         C         C         1.0       0.44079629988227964           0.7686415573478768 0.1097816631686444 1.0000   
         C         C         1.0       0.4421868711487048  0.7787459126506354  0.08971709525464493          1.0000   
         C         C         1.0       0.4552875096176265  0.8067938459980771  0.08655330229326569          1.0000   
         C         C         1.0       0.4686425563650697  0.8248940928171968  0.10259442684910787          1.0000   
         C         C         1.0       0.45394847949806716           0.7642461887164579 0.05905642997337915          1.0000   
         C         C         1.0       0.4641985587123429  0.7464465710880427  0.06332951965849329          1.0000   
         C         C         1.0       0.4885507064467783  0.7508655443431786  0.05593496289714487          1.0000   
         C         C         1.0       0.5038992186507121  0.7732045292389648  0.04504600816790216          1.0000   
         C         C         1.0       0.4946145029108906  0.7916018055595012  0.03956912687677621          1.0000   
         C         C         1.0       0.4695911821070339  0.7865306630562384  0.046996314649823304         1.0000   
         C         C         1.0       0.38620529794821495           0.7188960291470406 0.088375976787228  1.0000   
         C         C         1.0       0.36639034360969197           0.6922967894851546 0.08939679886907634          1.0000   
         C         C         1.0       0.3642400543725073  0.6731755558674598  0.07480453251438945          1.0000   
         C         C         1.0       0.38156081458253854           0.6828804686217956 0.058504728710511295         1.0000   
         C         C         1.0       0.4012058461489674  0.7095713582282945  0.05662636207020479          1.0000   
         C         C         1.0       0.4041179291076493  0.7279962633603491  0.0717473248505985 1.0000   
         H         H         1.0       0.34587981225209447           0.8454906952166672 0.03952829902792374          1.0000   
         H         H         1.0       0.4224746934628934  0.8504035979120512  0.054663901249117054         1.0000   
         H         H         1.0       0.43149183762998095           0.8837237597318588 0.07948076672739217          1.0000   
         H         H         1.0       0.35622682813821016           0.8810430309168733 0.06455306879622769          1.0000   
         H         H         1.0       0.4251024945417061  0.8430555060846339  0.01979821876102487          1.0000   
         H         H         1.0       0.44154607445512617           0.8605521408750381 0.9863981480270825 1.0000   
         H         H         1.0       0.365493667911023   0.8473006090608374  0.9651089911093004 1.0000   
         H         H         1.0       0.3463630262360932  0.8287700222184754  0.0006767418701071208        1.0000   
         H         H         1.0       0.3748889949291364  0.8023543974673821  0.07165910047812861          1.0000   
         H         H         1.0       0.39368550385905376           0.7771722409022891 0.08593591060140342          1.0000   
         H         H         1.0       0.41683689335036733           0.7651790384877553 0.026062182490117297         1.0000   
         H         H         1.0       0.39304855406054323           0.7861435115270359 0.012815962928829144         1.0000   
         H         H         1.0       0.45408310267066004           0.7799496412266599 0.14116411839421247          1.0000   
         H         H         1.0       0.43293988822409685           0.7475954149005991 0.11265218427944793          1.0000   
         H         H         1.0       0.45560802730175487           0.8152572916526947 0.07109877857569624          1.0000   
         H         H         1.0       0.47946154899565924           0.8462027602212859 0.09872498980986878          1.0000   
         H         H         1.0       0.45335906631969186           0.7303807165051825 0.07507152637221853          1.0000   
         H         H         1.0       0.4998994791224777  0.7418057001712005  0.061279469566220414         1.0000   
         H         H         1.0       0.506856212094872   0.8101778271859054  0.03040275065663958          1.0000   
         H         H         1.0       0.462342960112302   0.7995522583097608  0.04237722123046389          1.0000   
         H         H         1.0       0.3849829639960108  0.7343633627077357  0.09738488618436893          1.0000   
         H         H         1.0       0.35165103462136293           0.6850831386016628 0.10111875365647892          1.0000   
         H         H         1.0       0.3782867292973     0.6672725143399535  0.04708876905360936          1.0000   
         H         H         1.0       0.4145412516904595  0.7149496881988557  0.04365668485231336          1.0000   
         C         C         1.0       0.26062177088963684           0.7372747916610939 0.8466797288960183 1.0000   
         C         C         1.0       0.2527157756626966  0.7148086507630719  0.8582031657892489 1.0000   
         C         C         1.0       0.23285450654297293           0.6908125979695818 0.8517759272923257 1.0000   
         C         C         1.0       0.2191143909742698  0.6878461176962174  0.8326631614381493 1.0000   
         C         C         1.0       0.2319014028076281  0.7110164472062724  0.8198135959521713 1.0000   
         C         C         1.0       0.2526210916096156  0.7355228219524976  0.8270034559162792 1.0000   
         H         H         1.0       0.25904278656863455           0.7122032193136714 0.8729720026012296 1.0000   
         H         H         1.0       0.22547335011562783           0.6718006802400893 0.8601984323301057 1.0000   
         H         H         1.0       0.22339219017359263           0.7091923296926596 0.8051049579429796 1.0000   
         H         H         1.0       0.2608160739424212  0.7537146000799085  0.8163506340733302 1.0000   
         C         C         1.0       0.16716888276973232           0.6818204395042522 0.8105694595796598 1.0000   
         C         C         1.0       0.1727622038309848  0.6606507919896835  0.8120162574801858 1.0000   
         C         C         1.0       0.1594413723150887  0.6387922412734944  0.7992807871702143 1.0000   
         C         C         1.0       0.13718485555006937           0.635696680298958  0.7871172325165366 1.0000   
         C         C         1.0       0.13205282006593821           0.6571848549058894 0.7850222116124808 1.0000   
         C         C         1.0       0.14586892856409753           0.6798241273487579 0.7978253687853003 1.0000   
         C         C         1.0       0.19274618285802386           0.6592794841609104 0.8288465757523114 1.0000   
         C         C         1.0       0.17198561514533645           0.6479046051522678 0.8474667077846179 1.0000   
         C         C         1.0       0.15203720692755773           0.6200067096647487 0.8479412318764687 1.0000   
         C         C         1.0       0.13958825337054745           0.6105035435654788 0.8661788334439571 1.0000   
         C         C         1.0       0.14066487958454457           0.6279526066333081 0.8815565435808113 1.0000   
         C         C         1.0       0.1568470007170196  0.6554601991374396  0.8790772825752523 1.0000   
         C         C         1.0       0.17150304744593814           0.6653173176727425 0.861616152864455  1.0000   
         C         C         1.0       0.2196359797914817  0.6489394253824528  0.8030879655027402 1.0000   
         C         C         1.0       0.23215121441650946           0.6348143938695631 0.7958017925908974 1.0000   
         C         C         1.0       0.2347365255167542  0.6153841760029551  0.8077797452969774 1.0000   
         C         C         1.0       0.2202138224519862  0.607982351102797   0.8261555861645471 1.0000   
         C         C         1.0       0.2091599772526013  0.622878527726135   0.833469149423735  1.0000   
         C         C         1.0       0.2061225400414916  0.6419806624983365  0.8211160731311132 1.0000   
         C         C         1.0       0.24760522337831845           0.5985651330533227 0.8001645898379182 1.0000   
         C         C         1.0       0.17844589925646473           0.5499308378292589 0.7582184447360619 1.0000   
         C         C         1.0       0.20212976489239903           0.5727771576904233 0.7514849138009019 1.0000   
         C         C         1.0       0.22397955063652805           0.5875188233333156 0.7641130389093131 1.0000   
         C         C         1.0       0.22431352768642848           0.5787690353953302 0.7836764196649948 1.0000   
         C         C         1.0       0.20033770386758756           0.5575218012745021 0.7910437438433607 1.0000   
         C         C         1.0       0.17848103148025865           0.5428715435759578 0.7785994270305246 1.0000   
         C         C         1.0       0.25363035533081213           0.5813795658832065 0.8166786756542267 1.0000   
         C         C         1.0       0.2697074990815504  0.5951703423815708  0.8325175045200741 1.0000   
         C         C         1.0       0.2813782904585658  0.5834697505368307  0.8441610650302731 1.0000   
         C         C         1.0       0.28098072478128033           0.5592605664546905 0.8384617705167233 1.0000   
         C         C         1.0       0.26383025197451604           0.544553168679591  0.8224212788167544 1.0000   
         C         C         1.0       0.24875740727593315           0.5553610267049697 0.8119701016523347 1.0000   
         C         C         1.0       0.2942822534630113  0.6442080221284685  0.7968086714661277 1.0000   
         C         C         1.0       0.3195287318352665  0.6586769863979823  0.78802308263364   1.0000   
         C         C         1.0       0.3300602620074858  0.6476575963097977  0.7741713681797836 1.0000   
         C         C         1.0       0.3118212200125317  0.6203284897555097  0.7687662218627427 1.0000   
         C         C         1.0       0.28723091820328567           0.6056230175562126 0.7781516097434731 1.0000   
         C         C         1.0       0.2771736579016457  0.6172872789298043  0.7908987457985855 1.0000   
         H         H         1.0       0.17575435717531787           0.6979004207166065 0.8222684179358087 1.0000   
         H         H         1.0       0.16445314411727616           0.6223472908502704 0.7968531423576047 1.0000   
         H         H         1.0       0.12698915284509618           0.6176605284710532 0.77706790405383   1.0000   
         H         H         1.0       0.1429245808170308  0.6980550710207194  0.7952302102622619 1.0000   
         H         H         1.0       0.15210932679438932           0.6055585750219195 0.8368404157157289 1.0000   
         H         H         1.0       0.1267245205609054  0.5882508464670034  0.8684272035621999 1.0000   
         H         H         1.0       0.15902140273072612           0.6709584331434314 0.8897894436625259 1.0000   
         H         H         1.0       0.1833584688288703  0.688255099102192   0.8597406735655473 1.0000   
         H         H         1.0       0.21965707390167158           0.664660662590284  0.794552781740498  1.0000   
         H         H         1.0       0.24289636740738924           0.638503091185743  0.7813911125639053 1.0000   
         H         H         1.0       0.22043408398703337           0.5932085222671322 0.8366772529058738 1.0000   
         H         H         1.0       0.20278423203774643           0.6186234059129982 0.849265043474956  1.0000   
         H         H         1.0       0.202724736060003   0.580685291461      0.7361249892546016 1.0000   
         H         H         1.0       0.24186771320213013           0.6057684027672703 0.7579371139674053 1.0000   
         H         H         1.0       0.19855981713141366           0.5518086460714446 0.8073083723619942 1.0000   
         H         H         1.0       0.15876073779311622           0.526133506033187  0.7847926840019279 1.0000   
         H         H         1.0       0.2718022152797028  0.614685041110649   0.8377600453953121 1.0000   
         H         H         1.0       0.29211891497622394           0.592786698777092  0.8576476961798415 1.0000   
         H         H         1.0       0.2618009548495708  0.5257818162390937  0.8166954226647659 1.0000   
         H         H         1.0       0.23660236577043461           0.5434714170693722 0.7989022192973955 1.0000   
         H         H         1.0       0.2884975013709561  0.6560475283114343  0.806826545549632  1.0000   
         H         H         1.0       0.3320428780876253  0.6801082509812083  0.7939362040639368 1.0000   
         H         H         1.0       0.3184571610880517  0.6087197770651042  0.7595766511586596 1.0000   
         H         H         1.0       0.2752928757647375  0.5831758831237843  0.7755905470209475 1.0000   
         C         C         1.0       0.03801560093390314           0.728859709069657  0.6803822188019971 1.0000   
         C         C         1.0       0.01944711857288662           0.7055802369825659 0.6693743280539749 1.0000   
         C         C         1.0       0.015766506817159607          0.6809031002491567 0.6747044988848628 1.0000   
         C         C         1.0       0.027909848269195618          0.677068195622374  0.6920629506599623 1.0000   
         C         C         1.0       0.04296497737791182           0.6992701449690462 0.7045442684276441 1.0000   
         C         C         1.0       0.04926448530098909           0.724900901998757  0.6991226600796611 1.0000   
         H         H         1.0       0.00972997821920308           0.7083553298982312 0.6566781157907609 1.0000   
         H         H         1.0       0.004841980675648267          0.6634906877570156 0.6650380758550212 1.0000   
         H         H         1.0       0.05016757597730345           0.6971752777896639 0.7195049273070153 1.0000   
         H         H         1.0       0.06159210251224332           0.7403417160008506 0.7101867214635623 1.0000   
         C         C         1.0       0.07463511566867835           0.6639194467215869 0.7092362791605886 1.0000   
         C         C         1.0       0.04747208458035015           0.646095663941722  0.7119765267591364 1.0000   
         C         C         1.0       0.04120644499783462           0.6256235731463321 0.7266494047695513 1.0000   
         C         C         1.0       0.06141633395491187           0.6264102464112442 0.7394655921443324 1.0000   
         C         C         1.0       0.08759629963640922           0.6457901308431971 0.7362447779987332 1.0000   
         C         C         1.0       0.09454890314824761           0.6660765986253736 0.7222813818633163 1.0000   
         C         C         1.0       0.02338773434128893           0.647214146586392  0.6974380640870521 1.0000   
         C         C         1.0       0.026762840855270635          0.6301275500342388 0.6787773756278203 1.0000   
         C         C         1.0       0.013653042458331877          0.6013728371509295 0.6783962548765008 1.0000   
         C         C         1.0       0.016151998437200943          0.5874550544045248 0.6626263009462786 1.0000   
         C         C         1.0       0.029823337643332466          0.6005616025935876 0.6448379962034717 1.0000   
         C         C         1.0       0.04427030229336359           0.6290564782168063 0.6454544505084264 1.0000   
         C         C         1.0       0.04174214226902406           0.6431606010918991 0.6615676427707968 1.0000   
         C         C         1.0       0.9939349869676543  0.6425928221515328  0.7291093666314477 1.0000   
         C         C         1.0       0.4676377468695318  0.632361990298527   0.739624801671259  1.0000   
         C         C         1.0       0.446357073133447   0.608798055901735   0.7319696326445192 1.0000   
         C         C         1.0       0.45037833245915077           0.5989437930969839 0.7138458662062372 1.0000   
         C         C         1.0       0.4735522175670417  0.6133979028898672  0.702443296131462  1.0000   
         C         C         1.0       0.9954174805157447  0.6344801312288497  0.709699325734644  1.0000   
         C         C         1.0       0.4199935749397586  0.5920185073173508  0.7460319715621841 1.0000   
         C         C         1.0       0.44986703624676344           0.556627378441219  0.7919301254596459 1.0000   
         C         C         1.0       0.4485408184806135  0.579325864508771   0.7969570577573198 1.0000   
         C         C         1.0       0.4381428812144344  0.5902563296222183  0.7828059281613474 1.0000   
         C         C         1.0       0.429646925895041   0.5787458900488505  0.7634340749875397 1.0000   
         C         C         1.0       0.43448443234157325           0.557201972570348  0.7583109259408372 1.0000   
         C         C         1.0       0.44420209784524906           0.5465310086707817 0.7724190730156778 1.0000   
         C         C         1.0       0.3927025734164432  0.5690489387922276  0.7352658334827964 1.0000   
         C         C         1.0       0.38342711668679547           0.5753508231699176 0.717128574845066  1.0000   
         C         C         1.0       0.35635762959848505           0.5597995452707244 0.7105272482959523 1.0000   
         C         C         1.0       0.3387097782790509  0.5378930784529405  0.7228968578098446 1.0000   
         C         C         1.0       0.34796235907891687           0.5305232249476098 0.7393782665599782 1.0000   
         C         C         1.0       0.3745033784754478  0.5457608928441338  0.7451338406015744 1.0000   
         C         C         1.0       0.39189250106957146           0.6048418438120219 0.7703320180866312 1.0000   
         C         C         1.0       0.38120873417498896           0.6205514514103947 0.7762435368084755 1.0000   
         C         C         1.0       0.3889164550001652  0.6450945131731333  0.7664401226552735 1.0000   
         C         C         1.0       0.40427761344714724           0.6525609402257994 0.7494166319068043 1.0000   
         C         C         1.0       0.4149737402998429  0.6367680970349973  0.7427907723293087 1.0000   
         C         C         1.0       0.40987583326372773           0.6129488906752535 0.7531741695745234 1.0000   
         H         H         1.0       0.0819046177467798  0.681456103739475   0.6990432981014003 1.0000   
         H         H         1.0       0.019579816101747555          0.61008179368614   0.7285438358202265 1.0000   
         H         H         1.0       0.055457850695508404          0.6118890439503945 0.752011310239057  1.0000   
         H         H         1.0       0.1156736376777203  0.6819598150701541  0.7208965157832455 1.0000   
         H         H         1.0       0.0016091977100811652         0.5891943457198936 0.6910866226792962 1.0000   
         H         H         1.0       0.005826257086426718          0.5651334873629784 0.6630687707353763 1.0000   
         H         H         1.0       0.05613132890929886           0.6403563713135325 0.6330325280921384 1.0000   
         H         H         1.0       0.05264670782432248           0.6649534412591237 0.6608615443857714 1.0000   
         H         H         1.0       0.011683640646930546          0.6588516474111478 0.7365967029565383 1.0000   
         H         H         1.0       0.46490962034468936           0.6407188499602618 0.7537855102470061 1.0000   
         H         H         1.0       0.43358619206495275           0.5802945930226133 0.7072102694130444 1.0000   
         H         H         1.0       0.47390620396477784           0.6065753971452357 0.6872881600021853 1.0000   
         H         H         1.0       0.45870261183775357           0.5899519517704839 0.8107388804612535 1.0000   
         H         H         1.0       0.43765510125984003           0.6090167955150869 0.784953370008899  1.0000   
         H         H         1.0       0.42849377267938926           0.5481246141363892 0.743217876549425  1.0000   
         H         H         1.0       0.4485000889805949  0.5317199774607658  0.7673288251079372 1.0000   
         H         H         1.0       0.39726608423742293           0.5945605394936495 0.7084925616924782 1.0000   
         H         H         1.0       0.34861983360426596           0.563579570199935  0.6960913436349    1.0000   
         H         H         1.0       0.33605483251377116           0.513422709075314  0.7493479974654962 1.0000   
         H         H         1.0       0.3825759044642517  0.5434055779854964  0.7590062291923032 1.0000   
         H         H         1.0       0.38834043084677533           0.5858401518698807 0.7777982725052291 1.0000   
         H         H         1.0       0.36744078596605184           0.6131755848555931 0.7880660013101309 1.0000   
         H         H         1.0       0.41180864916033266           0.671278175206769  0.7415834962489584 1.0000   
         H         H         1.0       0.4290099530153141  0.6451388160803111  0.7301651929516964 1.0000   
         C         C         1.0       0.05008533868086937           0.7567810609117471 0.525964938672579  1.0000   
         C         C         1.0       0.030956035561408007          0.7598253667583292 0.5351182076259106 1.0000   
         C         C         1.0       0.022578037381759827          0.7765966226614178 0.5275025318379599 1.0000   
         C         C         1.0       0.034574960729885376          0.7927537007771962 0.5110643258066386 1.0000   
         C         C         1.0       0.054712175828725666          0.7894921988294051 0.5004672830910568 1.0000   
         C         C         1.0       0.06125298623495731           0.7698446214987444 0.5076582317730408 1.0000   
         H         H         1.0       0.024675485236492163          0.7504929046091164 0.5502453545705834 1.0000   
         H         H         1.0       0.009066671408106698          0.7806924573480302 0.5355831915635962 1.0000   
         H         H         1.0       0.06444731241426863           0.7994966632377022 0.4873017754199681 1.0000   
         H         H         1.0       0.07691049287626978           0.7678469526875942 0.4994495114478882 1.0000   
         C         C         1.0       0.07633077161313828           0.8517910813994601 0.4942910753544689 1.0000   
         C         C         1.0       0.04792588724501969           0.8374955030245143 0.4904239307116717 1.0000   
         C         C         1.0       0.039482340524564494          0.8460254851909119 0.4731962482073293 1.0000   
         C         C         1.0       0.05799904333299091           0.8660459532070468 0.46026139057135407          1.0000   
         C         C         1.0       0.0856672988763979  0.8794727513427418  0.46406738361479744          1.0000   
         C         C         1.0       0.09525347981370326           0.871580525552852  0.4810656997643018 1.0000   
         C         C         1.0       0.027143876882337065          0.8164351735461939 0.5058721111413034 1.0000   
         C         C         1.0       0.030089369002190895          0.836204562646518  0.5231352801933478 1.0000   
         C         C         1.0       0.01842930242471798           0.8533276168274154 0.5216283664608348 1.0000   
         C         C         1.0       0.022686716310561045          0.8722207892022641 0.536430073866998  1.0000   
         C         C         1.0       0.037592369496990276          0.8744429033418444 0.5531743291815882 1.0000   
         C         C         1.0       0.04601454163058696           0.8554394923616958 0.5565058298570097 1.0000   
         C         C         1.0       0.04335478756564671           0.8376812296825624 0.541318558328285  1.0000   
         C         C         1.0       0.9956452636335872  0.7846245863181489  0.47758464740735473          1.0000   
         C         C         1.0       0.4773958171554958  0.7774932191627142  0.46039033201131135          1.0000   
         C         C         1.0       0.4546987534902598  0.773480347148541   0.4716514438588827 1.0000   
         C         C         1.0       0.4592992282710251  0.7866231236859004  0.49002466963768854          1.0000   
         C         C         1.0       0.4859654022717424  0.8014359279893244  0.49821777973420744          1.0000   
         C         C         1.0       0.9973159407730686  0.7978272155622743  0.49562876102821324          1.0000   
         C         C         1.0       0.42638527599647946           0.7624383640550759 0.4596371565388773 1.0000   
         C         C         1.0       0.4529032818626858  0.8379964285952566  0.4247269700689635 1.0000   
         C         C         1.0       0.454167291395494   0.8160689819480551  0.41560750203131225          1.0000   
         C         C         1.0       0.44646156488628597           0.7926559075105541 0.4256877018497213 1.0000   
         C         C         1.0       0.43434722718356716           0.7883249867931796 0.44536143559954694          1.0000   
         C         C         1.0       0.43314739120328205           0.8105426637904378 0.4535057085338198 1.0000   
         C         C         1.0       0.44206945522068686           0.8339780718858055 0.44328037807250753          1.0000   
         C         C         1.0       0.3982101783299323  0.7533544015132366  0.47178750477697323          1.0000   
         C         C         1.0       0.3935547888061387  0.7403744631679232  0.4905866221612538 1.0000   
         C         C         1.0       0.3688594234396398  0.7293173123224193  0.4991469221164111 1.0000   
         C         C         1.0       0.3471614884319987  0.7308271151329198  0.490726184765798  1.0000   
         C         C         1.0       0.3514430044979236  0.7438306225487252  0.4719974037733388 1.0000   
         C         C         1.0       0.37749429263978146           0.7563817452117438 0.46330726557139995          1.0000   
         C         C         1.0       0.40595978067917615           0.7249055113802679 0.43002993697563313          1.0000   
         C         C         1.0       0.4013216611403366  0.6998909208615038  0.42210991926207064          1.0000   
         C         C         1.0       0.4081181693795695  0.6831484928441339  0.43229984905259145          1.0000   
         C         C         1.0       0.41949376407291716           0.690546632852911  0.45147025367000965          1.0000   
         C         C         1.0       0.42342584980967735           0.7149726949645896 0.4591808594562229 1.0000   
         C         C         1.0       0.41833957690313994           0.7338247357385257 0.44955406660946345          1.0000   
         H         H         1.0       0.08434501360820168           0.8450206596776819 0.5072574715137499 1.0000   
         H         H         1.0       0.01875918726813705           0.8406754786871579 0.47031243481735424          1.0000   
         H         H         1.0       0.05006777246311777           0.8726480577089369 0.4481210855083786 1.0000   
         H         H         1.0       0.11658542984503419           0.8795988248014223 0.4834791235193254 1.0000   
         H         H         1.0       0.009430013039069636          0.8540249830736161 0.5070969535100256 1.0000   
         H         H         1.0       0.015353966093419618          0.8859886930800505 0.5340112621466457 1.0000   
         H         H         1.0       0.05734020647951231           0.8578508621045176 0.5704172781416555 1.0000   
         H         H         1.0       0.05338584282859057           0.8259351759666665 0.5442430997321129 1.0000   
         H         H         1.0       0.012359715509008756          0.7804785474789392 0.47420085713741766          1.0000   
         H         H         1.0       0.4739424583291671  0.7667637963057997  0.4453563266088811 1.0000   
         H         H         1.0       0.44350929278898304           0.7850941497433961 0.5005594498495433 1.0000   
         H         H         1.0       0.48816194303873245           0.8098014034700045 0.5138457938651819 1.0000   
         H         H         1.0       0.46352290127377344           0.8192739066581263 0.40131705745658686          1.0000   
         H         H         1.0       0.44775192474033526           0.7760577451386471 0.41904126639165484          1.0000   
         H         H         1.0       0.4255212382565454  0.809390560381386   0.4689738249885022 1.0000   
         H         H         1.0       0.44074926395923225           0.8502193365725237 0.4506414189449401 1.0000   
         H         H         1.0       0.40605298578967247           0.7334251345949616 0.49716899911127976          1.0000   
         H         H         1.0       0.3669928425438437  0.7161974967889695  0.5114536120203617 1.0000   
         H         H         1.0       0.3333417107669342  0.7421875466410783  0.4633059564878807 1.0000   
         H         H         1.0       0.3785254801553234  0.7626437494621404  0.4474962623994483 1.0000   
         H         H         1.0       0.4020141952887976  0.7378110909390159  0.420344801533975  1.0000   
         H         H         1.0       0.39271646515000014           0.6938935174679287 0.4068589561242764 1.0000   
         H         H         1.0       0.4242198162624636  0.6787931071940458  0.4623826983503558 1.0000   
         H         H         1.0       0.42811940335889964           0.718790688313431  0.4757532850849225 1.0000   
         C         C         1.0       0.23373182720912622           0.9251251198871068 0.36949549192621056          1.0000   
         C         C         1.0       0.20647677570677422           0.9117378955464374 0.3750741910641468 1.0000   
         C         C         1.0       0.19374174433172137           0.9266695094682137 0.377774717458317  1.0000   
         C         C         1.0       0.20877203420911233           0.9549794852148872 0.3786969784154562 1.0000   
         C         C         1.0       0.23596828998916103           0.9683375476784604 0.37307569726996903          1.0000   
         C         C         1.0       0.24833416172734044           0.9532568915717631 0.3688215676793169 1.0000   
         H         H         1.0       0.195122207072118   0.8884611005012052  0.3767288173081652 1.0000   
         H         H         1.0       0.17129534586218212           0.9158700407161925 0.380252386202061  1.0000   
         H         H         1.0       0.24924139158135108           0.9904299209018087 0.37129089939488497          1.0000   
         H         H         1.0       0.2702406636099029  0.963157401972264   0.3646934372447858 1.0000   
         C         C         1.0       0.18123573954702493           0.9514504245029248 0.4182616190058378 1.0000   
         C         C         1.0       0.1735747053840637  0.961133963544088   0.40143058195407194          1.0000   
         C         C         1.0       0.15155325973429365           0.9660326788346996 0.4041251725407883 1.0000   
         C         C         1.0       0.13585273141826626           0.955999024537381  0.4213969610170836 1.0000   
         C         C         1.0       0.14223615418106958           0.9423635809246639 0.4363639888800476 1.0000   
         C         C         1.0       0.16550152737829352           0.9423895610964427 0.43615199947821043          1.0000   
         C         C         1.0       0.19287800658236498           0.9717479130277662 0.3821546278373805 1.0000   
         C         C         1.0       0.17959153243144393           0.9656572393883643 0.35935593144735717          1.0000   
         C         C         1.0       0.19342775691791486           0.9799741407948556 0.3421984992187293 1.0000   
         C         C         1.0       0.18140540054237622           0.9745994252497963 0.32364257803404894          1.0000   
         C         C         1.0       0.15494811911848716           0.9535380095755809 0.3210041250887295 1.0000   
         C         C         1.0       0.13940750384948675           0.9394887876011778 0.3372818003228219 1.0000   
         C         C         1.0       0.15163189757992976           0.9458598465910238 0.35638959708625695          1.0000   
         C         C         1.0       0.2459290359710318  0.5140978831601145  0.398857642087196  1.0000   
         C         C         1.0       0.2603696793002213  0.5404981458836683  0.4048723211310591 1.0000   
         C         C         1.0       0.25399396942167657           0.5592601710505208 0.3953908679069469 1.0000   
         C         C         1.0       0.23599758694453243           0.5515680304211822 0.3798323478753978 1.0000   
         C         C         1.0       0.22118301372566046           0.5245746069697201 0.3752946408394688 1.0000   
         C         C         1.0       0.22687423280720964           0.5052486618381842 0.3836750320850722 1.0000   
         C         C         1.0       0.26348202474276494           0.5877015725630893 0.40718458055938905          1.0000   
         C         C         1.0       0.19479066425271652           0.5564303062160868 0.4481024592374821 1.0000   
         C         C         1.0       0.2181267763230879  0.5549677385779737  0.4539705218114956 1.0000   
         C         C         1.0       0.2387034403190252  0.564008023366657   0.44053652593885595          1.0000   
         C         C         1.0       0.23951484102095424           0.5778421550668009 0.42305177701568475          1.0000   
         C         C         1.0       0.21713358258172905           0.5805019249354516 0.4186343270654877 1.0000   
         C         C         1.0       0.19432830201867213           0.5700237066113035 0.43039700162349015          1.0000   
         C         C         1.0       0.26819672777227815           0.6140576335533439 0.39435542971135096          1.0000   
         C         C         1.0       0.27873838181503596           0.6181451519205756 0.37501068019393974          1.0000   
         C         C         1.0       0.28942920418584944           0.6427786527638605 0.36517027508406935          1.0000   
         C         C         1.0       0.2873428611390099  0.6636551240930754  0.37378614517359343          1.0000   
         C         C         1.0       0.27647714243230864           0.6601466192737628 0.3929285099304637 1.0000   
         C         C         1.0       0.2668792988900128  0.6362503670473505  0.4027446126194963 1.0000   
         C         C         1.0       0.30278297299138607           0.6158883127916599 0.4353030253146978 1.0000   
         C         C         1.0       0.32987325873490636           0.627745073517011  0.4424653015254314 1.0000   
         C         C         1.0       0.3474150424137334  0.6231329715827624  0.43170114929389236          1.0000   
         C         C         1.0       0.3390891844814298  0.6080456449346876  0.41384915135562594          1.0000   
         C         C         1.0       0.31380496266937524           0.6004281090879469 0.4059242537797772 1.0000   
         C         C         1.0       0.2941326652926384  0.6012851987162011  0.41754468690115454          1.0000   
         H         H         1.0       0.1978871725293396  0.9478740177491515  0.41795653205534555          1.0000   
         H         H         1.0       0.14566364267660847           0.9752101420686087 0.392286782981453  1.0000   
         H         H         1.0       0.1158173958791398  0.9548904371766251  0.42254510775961696          1.0000   
         H         H         1.0       0.17094099969953433           0.9323281773745148 0.44811395831316564          1.0000   
         H         H         1.0       0.2153068026121181  0.9966453887356292  0.34319801618854145          1.0000   
         H         H         1.0       0.19274542511093798           0.985904530077869  0.309777153239072  1.0000   
         H         H         1.0       0.11863251752768192           0.9219965131821346 0.3340615020236211 1.0000   
         H         H         1.0       0.14152239955694604           0.9316137651303703 0.3680684389952641 1.0000   
         H         H         1.0       0.2317504402157718  0.99456694764126    0.41569054451005893          1.0000   
         H         H         1.0       0.2714459811037548  0.5455933678533205  0.41921873901222484          1.0000   
         H         H         1.0       0.22954428555911985           0.5657164807388146 0.374583051599619  1.0000   
         H         H         1.0       0.20169660246233911           0.5180343216306016 0.3674428197652074 1.0000   
         H         H         1.0       0.21878418106308548           0.543914909717512  0.46712896441687674          1.0000   
         H         H         1.0       0.25573222207712976           0.5602254758457108 0.444633342012628  1.0000   
         H         H         1.0       0.21689707783346604           0.5891604742192366 0.4035730339025727 1.0000   
         H         H         1.0       0.17715258293756161           0.5699824211378886 0.42504956703184915          1.0000   
         H         H         1.0       0.284604637727709   0.6053550646028923  0.3674938575437872 1.0000   
         H         H         1.0       0.2944686752228208  0.6434189055023675  0.35005830074777233          1.0000   
         H         H         1.0       0.27668354252632277           0.6767868151214148 0.4019321222603321 1.0000   
         H         H         1.0       0.2602470333365596  0.6353586714434033  0.41809718091487097          1.0000   
         H         H         1.0       0.28737322946550553           0.6158758521734089 0.44356335479305137          1.0000   
         H         H         1.0       0.3336675452311557  0.6376413325012896  0.4573379050728972 1.0000   
         H         H         1.0       0.35296061052477895           0.604237130245898  0.40574075985202623          1.0000   
         H         H         1.0       0.30889641173513976           0.5896530701173893 0.39211661896359207          1.0000   
         C         C         1.0       0.28009209639336036           0.9941230267593801 0.6749685168729155 1.0000   
         C         C         1.0       0.2605503851960431  0.9783774633443367  0.6890418268210716 1.0000   
         C         C         1.0       0.23358695783778347           0.9717351670487291 0.6867058016702546 1.0000   
         C         C         1.0       0.22641855389967522           0.9824108702649704 0.6704868990107767 1.0000   
         C         C         1.0       0.24534072697901052           0.9954796364686539 0.6550351269101059 1.0000   
         C         C         1.0       0.27182866828644797           0.0009358580881888567        0.6571990627981268 1.0000   
         H         H         1.0       0.2654555773796393  0.9729684079819461  0.7041344972859829 1.0000   
         H         H         1.0       0.21864630033026028           0.9572784773726659 0.6971422211672361 1.0000   
         H         H         1.0       0.24927838049660528           0.5059078939497459 0.645337891756098  1.0000   
         H         H         1.0       0.2903008911361609  0.5099235087291495  0.6570680507940311 1.0000   
         C         C         1.0       0.22245734690663446           0.5358902060253168 0.6528495681711021 1.0000   
         C         C         1.0       0.20075130150348441           0.5093247379008506 0.651946061802317  1.0000   
         C         C         1.0       0.1792964889665279  0.5055544630253401  0.6385986750422591 1.0000   
         C         C         1.0       0.1793602795855837  0.5256864532360386  0.6281553464619218 1.0000   
         C         C         1.0       0.20232519009705943           0.5518327050459484 0.6288195917845429 1.0000   
         C         C         1.0       0.22423520045446346           0.5562613697130304 0.6407046440277038 1.0000   
         C         C         1.0       0.19695219708689296           0.9791769395445418 0.668085742824411  1.0000   
         C         C         1.0       0.18480375327763926           0.980490600677011  0.6903944080234973 1.0000   
         C         C         1.0       0.155945339994421   0.9665320189395444  0.6931151151226181 1.0000   
         C         C         1.0       0.1463272820352779  0.9733468245490804  0.7103974270924583 1.0000   
         C         C         1.0       0.16077641504908718           0.5028461667938041 0.7175812464040057 1.0000   
         C         C         1.0       0.18912429026343655           0.5158893079121815 0.7160393047103418 1.0000   
         C         C         1.0       0.2010794436059404  0.5110411700032311  0.7004299742742786 1.0000   
         C         C         1.0       0.18794275726352813           0.949926298940963  0.6348793542627812 1.0000   
         C         C         1.0       0.17367825010414556           0.9268172679151014 0.623932822394655  1.0000   
         C         C         1.0       0.1543885321471823  0.9035381612292221  0.6327817922289102 1.0000   
         C         C         1.0       0.1509563479302634  0.9044736601285867  0.6538476553878991 1.0000   
         C         C         1.0       0.16557123908822138           0.9264657925674398 0.6650575327311411 1.0000   
         C         C         1.0       0.18358724150428632           0.950807429451702  0.6558337371583387 1.0000   
         C         C         1.0       0.1345570901601114  0.875916234796101   0.6202086081209264 1.0000   
         C         C         1.0       0.09213395766957003           0.9103119407515818 0.5846242381192885 1.0000   
         C         C         1.0       0.11533185786761742           0.9117284958584861 0.5761404577226242 1.0000   
         C         C         1.0       0.12773381398005426           0.8992266142882849 0.5875047033570517 1.0000   
         C         C         1.0       0.11827214682968659           0.8871222220139067 0.6065316420329201 1.0000   
         C         C         1.0       0.09561218570640719           0.8875454439557311 0.6147103050008732 1.0000   
         C         C         1.0       0.08221002456536151           0.8980677342799264 0.6032545514965081 1.0000   
         C         C         1.0       0.11737642633000181           0.8489794753832904 0.6332119679248015 1.0000   
         C         C         1.0       0.12863771066923227           0.8410910216643354 0.6489741360617977 1.0000   
         C         C         1.0       0.11338290259796355           0.8177769603759987 0.660100289408977  1.0000   
         C         C         1.0       0.08817752782968533           0.798434517908572  0.653159793836322  1.0000   
         C         C         1.0       0.07734236899305076           0.8038207951975942 0.63664983512649   1.0000   
         C         C         1.0       0.09141776693875837           0.8287773656076279 0.6267291661619282 1.0000   
         C         C         1.0       0.13822059482423063           0.8489627608148689 0.5906016944959851 1.0000   
         C         C         1.0       0.1487616754470581  0.8338964238028782  0.5824498032537527 1.0000   
         C         C         1.0       0.17496805121072412           0.8378397523502865 0.5879935880614835 1.0000   
         C         C         1.0       0.1887134747603473  0.8567862195676039  0.6028064090849937 1.0000   
         C         C         1.0       0.17695725852216038           0.8709035118074061 0.6117643159488543 1.0000   
         C         C         1.0       0.15081055793023307           0.8662660865474267 0.6070048674571891 1.0000   
         H         H         1.0       0.2378915256760168  0.5419394838145744  0.6636084889795462 1.0000   
         H         H         1.0       0.15738023230490877           0.9750596817653083 0.6430013594468783 1.0000   
         H         H         1.0       0.16189571612119935           0.5198266828425372 0.6196427071173123 1.0000   
         H         H         1.0       0.2422111809833735  0.5753653695943761  0.6400228333955301 1.0000   
         H         H         1.0       0.1417367843879382  0.9550039895357596  0.6819123143818144 1.0000   
         H         H         1.0       0.12437792102512404           0.9649324291531164 0.711023384023493  1.0000   
         H         H         1.0       0.20074782978176797           0.5281746180365802 0.7286198046369707 1.0000   
         H         H         1.0       0.22242397988349913           0.5173435415668486 0.7014311103395503 1.0000   
         H         H         1.0       0.2011023154806865  0.9685939678893856  0.6274820221913769 1.0000   
         H         H         1.0       0.17578062893492774           0.9256145635443104 0.6083531539454474 1.0000   
         H         H         1.0       0.13501626958673532           0.8873617921277416 0.6624111531682563 1.0000   
         H         H         1.0       0.1603491449799736  0.9256619027155953  0.6809257281182169 1.0000   
         H         H         1.0       0.12402970948355893           0.9197676047357731 0.5617366270391126 1.0000   
         H         H         1.0       0.14563360566534964           0.89836203472775   0.5812450732627373 1.0000   
         H         H         1.0       0.08981551272059068           0.8807455805994089 0.6300076485680893 1.0000   
         H         H         1.0       0.06580026881173942           0.8999040384816093 0.6090415643069093 1.0000   
         H         H         1.0       0.15036690663642177           0.8536778732018317 0.6529009785936175 1.0000   
         H         H         1.0       0.12149112459718543           0.8105133226286827 0.6717011306645683 1.0000   
         H         H         1.0       0.057494972501231666          0.7880024832238826 0.6310444597591953 1.0000   
         H         H         1.0       0.08102018881767829           0.8320946534654783 0.6128747769541518 1.0000   
         H         H         1.0       0.11794903021945301           0.8442966496175753 0.5870402940352125 1.0000   
         H         H         1.0       0.135700114164267   0.8169390608380154  0.5719907561857666 1.0000   
         H         H         1.0       0.20654604210421548           0.8577167098923445 0.6084187265547458 1.0000   
         H         H         1.0       0.18963590089270674           0.8849030745994022 0.6244145689035702 1.0000   
         C         C         1.0       0.2739519771726063  0.7102074741578837  0.5143674513567543 1.0000   
         C         C         1.0       0.25167679391804365           0.6996354493227401 0.5013304651730215 1.0000   
         C         C         1.0       0.22705049976808742           0.6801323908149831 0.5080463073081775 1.0000   
         C         C         1.0       0.2234489408281208  0.6688461719529379  0.5275550680710347 1.0000   
         C         C         1.0       0.24692902655002336           0.6792203116390654 0.5393346686380621 1.0000   
         C         C         1.0       0.27207265853223145           0.6992449824281165 0.5332877084436909 1.0000   
         H         H         1.0       0.2545875576957932  0.7077113786576733  0.48601021306327885          1.0000   
         H         H         1.0       0.20965358944460646           0.6702523079166857 0.4976159606088907 1.0000   
         H         H         1.0       0.24632302145632026           0.6728303389285947 0.5542538040061797 1.0000   
         H         H         1.0       0.2890751720752992  0.7084009202671538  0.5436063354026605 1.0000   
         C         C         1.0       0.21813053957542727           0.6145204358803402 0.5492813414256479 1.0000   
         C         C         1.0       0.19699526972709683           0.620271647485047  0.5496235630586509 1.0000   
         C         C         1.0       0.1769097097616088  0.6059297461372919  0.5642519966176522 1.0000   
         C         C         1.0       0.1782478246795007  0.5886814222312939  0.5777658771099233 1.0000   
         C         C         1.0       0.20172443043589205           0.5864089650700058 0.5787618146975867 1.0000   
         C         C         1.0       0.2213459761965961  0.5989760683536546  0.5643431123573485 1.0000   
         C         C         1.0       0.19542337049067324           0.6408104499287497 0.5333772653046731 1.0000   
         C         C         1.0       0.18252889202893502           0.6199150618474936 0.5146490562782813 1.0000   
         C         C         1.0       0.15538859353963796           0.599230278246319  0.5129317230396254 1.0000   
         C         C         1.0       0.14811295466123553           0.5806056056253164 0.4969467557654467 1.0000   
         C         C         1.0       0.1659002548827705  0.5806983685132098  0.4828439668468496 1.0000   
         C         C         1.0       0.1926294055806492  0.598365597765021   0.48557173868516934          1.0000   
         C         C         1.0       0.2001736841067206  0.6172589867346893  0.500764175944413  1.0000   
         C         C         1.0       0.18584743282285374           0.6677910147102083 0.55918512585937   1.0000   
         C         C         1.0       0.17135363078975438           0.6797932975384904 0.5668855439199273 1.0000   
         C         C         1.0       0.14744522119219033           0.6753733085444003 0.5576786941950601 1.0000   
         C         C         1.0       0.14306483953308477           0.6651647461897865 0.53820761677573   1.0000   
         C         C         1.0       0.15687510406560315           0.6532792442280869 0.530752327767573  1.0000   
         C         C         1.0       0.17837324696992005           0.6533473486770778 0.5417483292770042 1.0000   
         C         C         1.0       0.12611367124834708           0.6833332702014988 0.5676023627387154 1.0000   
         C         C         1.0       0.08238495292795617           0.6126860803492243 0.6082631349975911 1.0000   
         C         C         1.0       0.10237381345258088           0.6368941877872074 0.6157619361331899 1.0000   
         C         C         1.0       0.11651235660153908           0.6587744562814728 0.6030913828953172 1.0000   
         C         C         1.0       0.10901918648104857           0.6573465822635401 0.5827603740007617 1.0000   
         C         C         1.0       0.08919696670005196           0.6330923275604259 0.5749728973046887 1.0000   
         C         C         1.0       0.07666950090460926           0.6110732586028313 0.587740778790465  1.0000   
         C         C         1.0       0.1058099103420873  0.6895372522196851  0.5534754066345052 1.0000   
         C         C         1.0       0.11543429310192513           0.7053742763946375 0.5366670189910573 1.0000   
         C         C         1.0       0.10017660965281856           0.7136941341649947 0.5252037572822765 1.0000   
         C         C         1.0       0.07327154133131834           0.7039894277255425 0.5300178878058234 1.0000   
         C         C         1.0       0.062416781435866646          0.687956510823962  0.5469676795050736 1.0000   
         C         C         1.0       0.07841944253158019           0.6804653003969939 0.5588566025152177 1.0000   
         C         C         1.0       0.13363726066480844           0.7214607634920288 0.5934440960244367 1.0000   
         C         C         1.0       0.14634624625978113           0.748239645961598  0.6007045739651234 1.0000   
         C         C         1.0       0.1702037403502293  0.7681914724891515  0.5921677541069522 1.0000   
         C         C         1.0       0.18114036515036241           0.7603411564443249 0.5771598423828054 1.0000   
         C         C         1.0       0.16738381349462042           0.7341451306524948 0.5688564117192093 1.0000   
         C         C         1.0       0.14381634878887523           0.713526999471111  0.5775933608500738 1.0000   
         H         H         1.0       0.23506491188907377           0.6248144190430536 0.5384721424453826 1.0000   
         H         H         1.0       0.15782832945039077           0.6059822143619202 0.5641368266528022 1.0000   
         H         H         1.0       0.1608091450427401  0.5751854972722323  0.5874442902489313 1.0000   
         H         H         1.0       0.24042855566843163           0.5982596858263298 0.5621548564448456 1.0000   
         H         H         1.0       0.13893937562062542           0.5980239950197527 0.5237554665270276 1.0000   
         H         H         1.0       0.12732642459006568           0.5630633887232379 0.4941640407280974 1.0000   
         H         H         1.0       0.20842158244736056           0.5986207439174056 0.4762639887503367 1.0000   
         H         H         1.0       0.22151612912242327           0.630352242005565  0.5031416630325802 1.0000   
         H         H         1.0       0.20509099058869149           0.6726681711403808 0.5667551300698209 1.0000   
         H         H         1.0       0.17820578085123182           0.6939972040558966 0.5794506097056722 1.0000   
         H         H         1.0       0.12884563718121333           0.6675959881894932 0.5288951293418621 1.0000   
         H         H         1.0       0.15485457475396397           0.6480755805786724 0.5158284729741933 1.0000   
         H         H         1.0       0.10584358829291556           0.639453352861966  0.6313937922551525 1.0000   
         H         H         1.0       0.1326149353061302  0.677202601345928   0.609213858529763  1.0000   
         H         H         1.0       0.08210277057150457           0.6281493699448987 0.5594574027331858 1.0000   
         H         H         1.0       0.06608023666995758           0.5918029303620165 0.5799790988425246 1.0000   
         H         H         1.0       0.13721918849044337           0.7165837997235831 0.5337479668328976 1.0000   
         H         H         1.0       0.11017692265350781           0.7278306977336745 0.5123910006322462 1.0000   
         H         H         1.0       0.04176944749201867           0.6827073809908797 0.5535168098840064 1.0000   
         H         H         1.0       0.07060191240983034           0.6704108616361001 0.573142001847093  1.0000   
         H         H         1.0       0.11350843458569215           0.7096285413784873 0.5998812542471682 1.0000   
         H         H         1.0       0.13746983760633172           0.7530822330995277 0.6120322329720237 1.0000   
         H         H         1.0       0.20105892451568938           0.7758475816773225 0.5725639553529016 1.0000   
         H         H         1.0       0.1788458977819258  0.7316106262809958  0.557050848759579  1.0000   
         C         C         1.0       0.20371090162134312           0.5743536367088343 0.6154745556046399 1.0000   
         C         C         1.0       0.20360529247028883           0.5667064176152263 0.5938837027246832 1.0000   
         H         H         1.0       0.1846570502437704  0.5747378068863509  0.6182152313468356 1.0000   
         H         H         1.0       0.22059549118444055           0.5953185268198269 0.6194816848901307 1.0000   
         H         H         1.0       0.18604366600105796           0.5474123321087999 0.5897270147511097 1.0000   
         H         H         1.0       0.22325102922676054           0.5657513643915252 0.5907361789603166 1.0000   
         C         C         1.0       0.18333662476887222           0.7988089527794403 0.597910418043215  1.0000   
         C         C         1.0       0.1872521450065756  0.8196622054422015  0.5805636264709514 1.0000   
         H         H         1.0       0.17072170241788845           0.8002961256394377 0.6100063308332448 1.0000   
         H         H         1.0       0.20306669034760771           0.8045261390190571 0.6045415133126336 1.0000   
         H         H         1.0       0.17466482433857364           0.8089077757938838 0.5673503247137819 1.0000   
         H         H         1.0       0.208120560937367   0.8308267088005703  0.5772251285588124 1.0000   
         C         C         1.0       0.1693085077485943  0.5428251097424129  0.4612722768818105 1.0000   
         C         C         1.0       0.15535573398489316           0.5596126185796846 0.4660015942181951 1.0000   
         H         H         1.0       0.1721295654924493  0.5346308473063831  0.4751280304964686 1.0000   
         H         H         1.0       0.1554756722552277  0.5256080639467711  0.4523031269228766 1.0000   
         H         H         1.0       0.1335657439547255  0.5427234582292301  0.4689631182537995 1.0000   
         H         H         1.0       0.15279283679738603           0.5691568523123671 0.45222776699419676          1.0000   
         C         C         1.0       0.04372229356174479           0.8969599395308688 0.5686460375683432 1.0000   
         C         C         1.0       0.07437280515042681           0.9196872554109037 0.5747112576823407 1.0000   
         H         H         1.0       0.03433762907029498           0.9100026019238426 0.5651878123086564 1.0000   
         H         H         1.0       0.0319791332220936  0.8845403487003929  0.5819694347705493 1.0000   
         H         H         1.0       0.08592042427891257           0.9315868459117105 0.5622425061595774 1.0000   
         H         H         1.0       0.07190524907950352           0.9338351839442206 0.5853737340302324 1.0000   
         C         C         1.0       0.1075889038277696  0.8963132641215696  0.44786840523460836          1.0000   
         C         C         1.0       0.12289030867676169           0.9267537725010916 0.4537073392829703 1.0000   
         H         H         1.0       0.11958347807120928           0.8864276884037137 0.44545801641295596          1.0000   
         H         H         1.0       0.09696734817783727           0.8947424416451998 0.4337626528396846 1.0000   
         H         H         1.0       0.10831200531684    0.9346146981453136  0.4568196815570241 1.0000   
         H         H         1.0       0.13506923778464053           0.9289956857705718 0.46724759742916955          1.0000   
         C         C         1.0       0.398990604295962   0.6541186752571387  0.4259442663894427 1.0000   
         C         C         1.0       0.3755107256064768  0.63091619642501    0.4388504179651877 1.0000   
         H         H         1.0       0.39270051551583923           0.6548681825742337 0.40954770266807833          1.0000   
         H         H         1.0       0.41669557787015005           0.6514105944284179 0.4240169884377783 1.0000   
         H         H         1.0       0.37898827995240636           0.637803475118498  0.4553834402700573 1.0000   
         H         H         1.0       0.37790203680982365           0.6129081140490316 0.43831942703487503          1.0000   
         C         C         1.0       0.05972523781889456           0.7389986011483437 0.5346778570543623 1.0000   
         C         C         1.0       0.05663864848919532           0.7153275790724597 0.5206460542625226 1.0000   
         H         H         1.0       0.0514781401155818  0.7315835912201123  0.5502398124224698 1.0000   
         H         H         1.0       0.08126816780277228           0.7534754676863407 0.5375981207212603 1.0000   
         H         H         1.0       0.0641274109476725  0.7226974305301869  0.5043821371895904 1.0000   
         H         H         1.0       0.035768036334269844          0.7011269972424459 0.5168380685108114 1.0000   
         C         C         1.0       0.3035150511717669  0.7290584627971874  0.5070868049058819 1.0000   
         C         C         1.0       0.31788521935231    0.7136185858224187  0.49931226391490835          1.0000   
         H         H         1.0       0.3156973764451175  0.7449134742337429  0.518538991286809  1.0000   
         H         H         1.0       0.30281763558293345           0.7428050798774422 0.49511552198176256          1.0000   
         H         H         1.0       0.3047373053389222  0.6983717733539162  0.48872705487985885          1.0000   
         H         H         1.0       0.3205643272997918  0.702670101598203   0.5124224654090989 1.0000   
         C         C         1.0       0.03392569193848081           0.5858182212997811 0.6261644839030728 1.0000   
         C         C         1.0       0.06327286852128361           0.5895666263176872 0.6217299970310826 1.0000   
         H         H         1.0       0.021474409222259384          0.5635039761554519 0.627190101968027  1.0000   
         H         H         1.0       0.02769375603252967           0.5926401056244062 0.6120414275213093 1.0000   
         H         H         1.0       0.058762294699813415          0.5695275709215207 0.616027730258659  1.0000   
         H         H         1.0       0.07408682719477774           0.5909310959548015 0.6367783065506358 1.0000   
         C         C         1.0       0.04795857126847393           0.7573740136427294 0.6727656988548256 1.0000   
         C         C         1.0       0.07621851121558963           0.7692248775847814 0.6629234818591073 1.0000   
         H         H         1.0       0.032960130546596106          0.7552562197535313 0.6611680155061157 1.0000   
         H         H         1.0       0.04586987628209839           0.7699965054391069 0.6841839342309272 1.0000   
         H         H         1.0       0.07397057434101632           0.7555768332881044 0.6505703721661442 1.0000   
         H         H         1.0       0.0915363158509908  0.7682531747514418  0.6727197221239416 1.0000   
         C         C         1.0       0.3101296895090476  0.5211387792530193  0.7164474912928281 1.0000   
         C         C         1.0       0.3038686772508081  0.50252842954514    0.6976382551886153 1.0000   
         H         H         1.0       0.2964118210498325  0.5087996877926879  0.7280395603630322 1.0000   
         H         H         1.0       0.30154879204883883           0.5343601844141254 0.7119704660684917 1.0000   
         H         H         1.0       0.3189770516071603  0.5133204946215603  0.6863014025892068 1.0000   
         H         H         1.0       0.31278982903401925           0.9956642442684255 0.6924380277292987 1.0000   
         C         C         1.0       0.14808228038579305           0.5050865938569665 0.7380086374465592 1.0000   
         C         C         1.0       0.15405092641178852           0.5348122148953779 0.743329809234881  1.0000   
         H         H         1.0       0.1257776582661697  0.4910772175777366  0.7379047522480392 1.0000   
         H         H         1.0       0.1525138096237501  0.49480296644335314           0.7512189421626299 1.0000   
         H         H         1.0       0.15687262527709658           0.546834134805963  0.7289054165126598 1.0000   
         H         H         1.0       0.13526349900298362           0.5333644360936279 0.7506177124934683 1.0000   
         C         C         1.0       0.10966734821417762           0.6460771973908206 0.7495573382076587 1.0000   
         C         C         1.0       0.11147286503750707           0.6584877047346434 0.770363316796336  1.0000   
         H         H         1.0       0.10399528084098558           0.6237110025656272 0.750953695330624  1.0000   
         H         H         1.0       0.130002144004917   0.6563550454139512  0.7411247981251107 1.0000   
         H         H         1.0       0.11670250244592832           0.6808123081874751 0.7692191604067099 1.0000   
         H         H         1.0       0.0917160857079232  0.6462236418475381  0.7778548100312922 1.0000   
         C         C         1.0       0.38108969048844854           0.665560736729716  0.7757854891294041 1.0000   
         C         C         1.0       0.3572892965069494  0.664800665797595   0.7638910338077487 1.0000   
         H         H         1.0       0.37524244261920336           0.6600041247323012 0.791050500555154  1.0000   
         H         H         1.0       0.3979613165000533  0.6872225916887701  0.7753998211172901 1.0000   
         H         H         1.0       0.35546436973841555           0.6558663449810128 0.7482443382365634 1.0000   
         H         H         1.0       0.35841782425351515           0.6847780514174756 0.7609398627474017 1.0000   
         C         C         1.0       0.39894923332958754           0.902664383653742  0.09152859121973121          1.0000   
         C         C         1.0       0.4053429543611751  0.9319994126917113  0.08658000472338392          1.0000   
         H         H         1.0       0.37821810543864937           0.8917875914543316 0.09884674320221515          1.0000   
         H         H         1.0       0.41113517498105984           0.901607000178248  0.10385048458925622          1.0000   
         H         H         1.0       0.4275733407035869  0.9456324871134361  0.0819736761626162 1.0000   
         H         H         1.0       0.39608465312530916           0.933820695723162  0.07189052758989661          1.0000   
         C         C         1.0       0.34096946808848544           0.6431825643863891 0.07765892857330339          1.0000   
         C         C         1.0       0.3461409261123189  0.6206097763792597  0.07178594803900964          1.0000   
         H         H         1.0       0.3329677626883389  0.6392670944641466  0.09336116755343692          1.0000   
         H         H         1.0       0.32378025141024713           0.6419601460643766 0.06957427619560713          1.0000   
         H         H         1.0       0.352773595906917   0.6229286579826645  0.05555015639595826          1.0000   
         H         H         1.0       0.3261053771934676  0.6025940497053012  0.07105679410426778          1.0000   
         C         C         1.0       0.01588893946257549           0.8424949750049039 0.13900674645514227          1.0000   
         C         C         1.0       0.47967909825970617           0.833239427494539  0.13977869988118713          1.0000   
         H         H         1.0       0.03127173039053696           0.8641982879743393 0.13599926823994177          1.0000   
         H         H         1.0       0.014195857796055832          0.8298920683386376 0.12597905882969437          1.0000   
         H         H         1.0       0.4747626731824517  0.8490428046512828  0.13781701501107638          1.0000   
         H         H         1.0       0.46729617934018336           0.8219722695367951 0.1526301969595556 1.0000   
         C         C         1.0       0.9858865883949098  0.6801337169834845  0.19629928163679766          1.0000   
         C         C         1.0       0.46357907902910145           0.6797651077376174 0.17781565378311823          1.0000   
         H         H         1.0       0.9995112060116367  0.6745689409824525  0.18741309954927104          1.0000   
         H         H         1.0       0.9802744855952251  0.6660651274779188  0.20990345724893855          1.0000   
         H         H         1.0       0.4701986594461106  0.6973651478523208  0.1674717066060764 1.0000   
         H         H         1.0       0.44742690381860334           0.6791901865146449 0.18778017369979347          1.0000   
         C         C         1.0       0.25357533660798826           0.8899663738286918 0.20444506620764663          1.0000   
         C         C         1.0       0.25498313695069547           0.905090120057756  0.18541909114435778          1.0000   
         H         H         1.0       0.2700607836749595  0.9025312482812262  0.2135440477073098 1.0000   
         H         H         1.0       0.2548170900402968  0.8711914908287904  0.20106267421524662          1.0000   
         H         H         1.0       0.24399823686165495           0.8905299440616911 0.173182592297143  1.0000   
         H         H         1.0       0.2415045733755597  0.9140196946017646  0.18619027853842496          1.0000   
         C         C         1.0       0.13980931839493219           0.9490915800368944 0.30069403604794065          1.0000   
         C         C         1.0       0.12145189338668448           0.9189837837375242 0.29237533030368756          1.0000   
         H         H         1.0       0.15511348337683503           0.9611515059917307 0.2875481053445056 1.0000   
         H         H         1.0       0.125174222922761   0.9573312503289881  0.3022608295806444 1.0000   
         H         H         1.0       0.10667067501023178           0.9166823136067406 0.28011418151904977          1.0000   
         H         H         1.0       0.10733504493487818           0.9063695027788252 0.30496112869041436          1.0000   
         C         C         1.0       0.43819354751396256           0.8697625886274988 0.40736679924351   1.0000   
         C         C         1.0       0.46174418788062405           0.8639740706963341 0.41201302079958185          1.0000   
         H         H         1.0       0.4239644122658496  0.8640072521519411  0.42009292028902917          1.0000   
         H         H         1.0       0.4473445540490374  0.8925107635692963  0.4065456698050239 1.0000   
         H         H         1.0       0.477921755375466   0.8801098403461636  0.4224885654025897 1.0000   
         H         H         1.0       0.473412937154455   0.8659659056574166  0.397962323273838  1.0000   
         C         C         1.0       0.3953164361464951  0.9589018647050654  0.23659112701638205          1.0000   
         C         C         1.0       0.37211045744014226           0.9573733935025422 0.2512708144808003 1.0000   
         H         H         1.0       0.415988671729559   0.9771919624953621  0.24163176466639338          1.0000   
         H         H         1.0       0.3988888692727169  0.941541408305459   0.23898222093184676          1.0000   
         H         H         1.0       0.3551685011929363  0.9584084397552213  0.2424125716441068 1.0000   
         H         H         1.0       0.38325903725900634           0.9758236097461053 0.2622165439288078 1.0000   
         C         C         1.0       0.46232353219281735           0.8193877683323707 0.2877216171562632 1.0000   
         C         C         1.0       0.45304265395864474           0.8105331703746863 0.26630446470210595          1.0000   
         H         H         1.0       0.47976196176614894           0.8400592083655434 0.2903585617670762 1.0000   
         H         H         1.0       0.469505690182697   0.8049309182968091  0.2932720747088876 1.0000   
         H         H         1.0       0.4340574241549246  0.7922504537044014  0.26742837703727884          1.0000   
         H         H         1.0       0.45071708540872685           0.8264643240401301 0.2588321004766573 1.0000   
         C         C         1.0       0.19649600454897448           0.7662335824968413 0.27459220771991955          1.0000   
         C         C         1.0       0.1750818856486858  0.7670095162775862  0.28842745851858   1.0000   
         H         H         1.0       0.19163113840673646           0.7651640854702599 0.2579007438010891 1.0000   
         H         H         1.0       0.19537806803343535           0.7463434213722352 0.27699134000249587          1.0000   
         H         H         1.0       0.158721858678722   0.7450867746181639  0.2883421359101061 1.0000   
         H         H         1.0       0.18206345445674654           0.7711635316996713 0.30507101226796074          1.0000   
         C         C         1.0       0.28666399805460324           0.7068714402318068 0.3591888038039572 1.0000   
         C         C         1.0       0.30252379842975957           0.6910928894706514 0.36339921535961583          1.0000   
         H         H         1.0       0.26915962601058036           0.6951031282292635 0.3488608765612981 1.0000   
         H         H         1.0       0.2774692443427416  0.7097731583503035  0.37355987515927935          1.0000   
         H         H         1.0       0.3198135562569188  0.703580768244443   0.3728825523568722 1.0000   
         H         H         1.0       0.31145355900916133           0.6900781872396894 0.3492452289677841 1.0000   
         C         C         1.0       0.23404344767071875           0.8845762959891721 0.3517131725265908 1.0000   
         C         C         1.0       0.24863361145715684           0.9093805968288957 0.36647098776150855          1.0000   
         H         H         1.0       0.22247779695736886           0.8898002605833581 0.3409567625206008 1.0000   
         H         H         1.0       0.2195100476504012  0.8666388657739852  0.3588845123701176 1.0000   
         H         H         1.0       0.25311593858021425           0.9017927113953186 0.38090391814035984          1.0000   
         H         H         1.0       0.26784300586752025           0.9211489349243985 0.3597390483499458 1.0000   
         C         C         1.0       0.4408706642676174  0.5126067534860232  0.810356760633416  1.0000   
         C         C         1.0       0.4603155478951153  0.5426772717297189  0.8072526972780864 1.0000   
         H         H         1.0       0.4315573859280051  0.9711202458216092  0.7872226533752618 1.0000   
         H         H         1.0       0.4118230923139356  0.9822153480206522  0.7725959110773752 1.0000   
         H         H         1.0       0.46467382054329776           0.5529520798700392 0.8216463831515367 1.0000   
         H         H         1.0       0.48000083351169226           0.5440558745554039 0.8022497770155532 1.0000   
         C         C         1.0       0.2977802888368241  0.5498397767468104  0.8493972716501738 1.0000   
         C         C         1.0       0.27911397857177095           0.5192010407730224 0.8594367515399292 1.0000   
         H         H         1.0       0.3135695834864855  0.5518157356879373  0.8397414239088888 1.0000   
         H         H         1.0       0.30843544179169413           0.5623714534423843 0.8626942291201783 1.0000   
         H         H         1.0       0.2665434507924754  0.5202038097969318  0.8720627561301126 1.0000   
         H         H         1.0       0.2686430126035982  0.0007447075232331901        0.8450387730808225 1.0000   
         C         C         1.0       0.2555531646464713  0.7656832567327624  0.8735730283170995 1.0000   
         C         C         1.0       0.27656814004090713           0.7640268134822257 0.858750555039872  1.0000   
         H         H         1.0       0.2385643423857241  0.764423605155788   0.863731971443338  1.0000   
         H         H         1.0       0.24765318449277063           0.749285806329396  0.886174954976637  1.0000   
         H         H         1.0       0.2936917083369571  0.764885325182063   0.8663279157413302 1.0000   
         H         H         1.0       0.2828769725055212  0.7787906884840622  0.8461998934597424 1.0000   
         C         C         1.0       0.41722899233446353           0.8720547163311337 0.9550586009363549 1.0000   
         C         C         1.0       0.4166491469906749  0.8994236607952183  0.9520091043201233 1.0000   
         H         H         1.0       0.43975245631163684           0.8799535591838152 0.9570350500276869 1.0000   
         H         H         1.0       0.4125978497193632  0.8604830943273832  0.9406005878069555 1.0000   
         H         H         1.0       0.4346731189965022  0.9143608426955685  0.9430455398413309 1.0000   
         H         H         1.0       0.4189908302724427  0.908230955382419   0.9671916277828049 1.0000   
         C         C         1.0       0.48803398052099506           0.5640078146967937 0.07092607883590483          1.0000   
         C         C         1.0       0.014034347781819804          0.5868245263680244 0.07300054127674523          1.0000   
         H         H         1.0       0.4898838120376747  0.5471707292341393  0.0792207937282291 1.0000   
         H         H         1.0       0.47800166193791005           0.5553498274718112 0.055998561699663316         1.0000   
         H         H         1.0       0.023785316240027773          0.5985732405935836 0.08721239917896619          1.0000   
         H         H         1.0       0.02723096136562377           0.5790064700637948 0.07007641624443799          1.0000   
         C         C         1.0       0.10569132341504424           0.6277400913782977 0.9068798100091865 1.0000   
         C         C         1.0       0.12465998127144087           0.6180776960751346 0.9017720359823426 1.0000   
         H         H         1.0       0.08618807602238211           0.6088891678507956 0.9114936256646117 1.0000   
         H         H         1.0       0.0998442895127374  0.6332157577397993  0.8923284264929152 1.0000   
         H         H         1.0       0.11171637114748002           0.5956009457166941 0.9014779743633358 1.0000   
         H         H         1.0       0.138739272430486   0.6207561019162315  0.9140036829530322 1.0000   
         C         C         1.0       0.4559813139379714  0.5676984689978731  0.9317501677217765 1.0000   
         C         C         1.0       0.4476201281304955  0.5814149330333117  0.9480512384261327 1.0000   
         H         H         1.0       0.4684035978773775  0.5838912858534211  0.9206487559953606 1.0000   
         H         H         1.0       0.4681161728775126  0.5576930899722865  0.9369829972775744 1.0000   
         H         H         1.0       0.43213043107543336           0.5633914683220299 0.9581796749620627 1.0000   
         H         H         1.0       0.43528299032364626           0.5901013225955769 0.9397806281762954 1.0000   
         C         C         1.0       0.18571089042882016           0.8302758823145013 0.9475332837380568 1.0000   
         C         C         1.0       0.21389407106806893           0.8482133245276224 0.957222594454548  1.0000   
         H         H         1.0       0.18643321815825414           0.8348114580071904 0.9310924467329864 1.0000   
         H         H         1.0       0.17364504751840473           0.8378310357857113 0.9553533706522779 1.0000   
         H         H         1.0       0.2164421686117105  0.8390153034278461  0.97140997970757   1.0000   
         H         H         1.0       0.21513578856646276           0.867507197053646  0.9612358600208561 1.0000   
         C         C         1.0       0.03156662479248526           0.7817191370685722 0.043383258701136025         1.0000   
         C         C         1.0       0.03442208156140175           0.7701078158001334 0.023353366323342974         1.0000   
         H         H         1.0       0.042821866113845995          0.7775216344445472 0.054973467265779376         1.0000   
         H         H         1.0       0.045311293613087604          0.8034868736602179 0.04472757634681033          1.0000   
         H         H         1.0       0.055874990577570116          0.7812094379442016 0.01823930208397013          1.0000   
         H         H         1.0       0.021851750414275232          0.774315126936936  0.01222937634961229          1.0000   
         C         C         1.0       0.24626368944383598           0.7645513356697078 0.012521839917487806         1.0000   
         C         C         1.0       0.25565315732583754           0.7473750930534312 0.025661895787393918         1.0000   
         H         H         1.0       0.24709248611551848           0.779725212644221  0.02368237456651896          1.0000   
         H         H         1.0       0.2622806579732915  0.7774459595677998  0.0016042104883214057        1.0000   
         H         H         1.0       0.2484050328481715  0.7273976228511788  0.017806497294137514         1.0000   
         H         H         1.0       0.2432798872876362  0.7422365379352341  0.04007398689951013          1.0000   
         C         C         1.0       0.5112081622150704  0.21673584779416702           0.00736121451409082          1.0000   
         C         C         1.0       0.5267763783656418  0.20917292126678444           0.019275384575487296         1.0000   
         C         C         1.0       0.5325091216196028  0.1894931739356281  0.012307669174781979         1.0000   
         C         C         1.0       0.5206056670772097  0.17430305020472533           0.9954251559499312 1.0000   
         C         C         1.0       0.5072131769616879  0.18388184940742883           0.9829858782410582 1.0000   
         C         C         1.0       0.5028166695868592  0.2054957749222701  0.9884333721549169 1.0000   
         H         H         1.0       0.5383510218592065  0.22134078756339698           0.032856801731757285         1.0000   
         H         H         1.0       0.5444064517345842  0.184932861419288   0.021581133915934695         1.0000   
         H         H         1.0       0.5011247737655903  0.174933704145937   0.967552235568756  1.0000   
         H         H         1.0       0.49461431804642736           0.21390165761913166          0.9772500482958669 1.0000   
         C         C         1.0       0.9833685122435437  0.1382087846879984  0.9813747289203283 1.0000   
         C         C         1.0       0.5071442937633974  0.1301954019770006  0.9704803796507468 1.0000   
         C         C         1.0       0.5179925338730696  0.11875047859795963           0.9577502042568603 1.0000   
         C         C         1.0       0.9951376845391159  0.10516286631744873           0.957567219470761  1.0000   
         C         C         1.0       0.9700153822143531  0.1026773341672694  0.956155753411007  1.0000   
         C         C         1.0       0.9646849781417394  0.12011876869941077           0.9674267063265853 1.0000   
         C         C         1.0       0.5243308299969668  0.14913785417124512           0.9892392838884966 1.0000   
         C         C         1.0       0.5163374593500343  0.1258401348173312  0.0064498798731943315        1.0000   
         C         C         1.0       0.5264888231684961  0.10796378399297257           0.006553229083541757         1.0000   
         C         C         1.0       0.5169676334149866  0.08746598422011788           0.021192429099358343         1.0000   
         C         C         1.0       0.5015370225498162  0.08641774728994935           0.0375270012659011 1.0000   
         C         C         1.0       0.4945431012279428  0.1058345927663741  0.0387591092593986 1.0000   
         C         C         1.0       0.5004273859481874  0.12476419010147533           0.02359649307894685          1.0000   
         C         C         1.0       0.5648780097480998  0.18011084102010574           0.9641773793538281 1.0000   
         C         C         1.0       0.5917844074954446  0.19471228764534254           0.9579975713091553 1.0000   
         C         C         1.0       0.6124084429721068  0.1935206414066686  0.9680832804766156 1.0000   
         C         C         1.0       0.6051808282866008  0.17840684511935562           0.9864780132331942 1.0000   
         C         C         1.0       0.5782298721065332  0.16536773202819205           0.9933197746176147 1.0000   
         C         C         1.0       0.5569505853430297  0.16562836167733994           0.982053573795658  1.0000   
         C         C         1.0       0.6431322285190373  0.20826273409318427           0.9596006825342474 1.0000   
         C         C         1.0       0.6285980249892881  0.14225769632243773           0.9173422377942594 1.0000   
         C         C         1.0       0.6257849776409914  0.16358352584949837           0.9109847619146187 1.0000   
         C         C         1.0       0.6314284521725405  0.18570616312502217           0.9232148628386869 1.0000   
         C         C         1.0       0.638170695812131   0.18572156048525654           0.9428313543129763 1.0000   
         C         C         1.0       0.6406367272456973  0.16298445412326035           0.9496394642243978 1.0000   
         C         C         1.0       0.6353429311740445  0.14122156316056664           0.9374717283310422 1.0000   
         C         C         1.0       0.6671393065746465  0.21451619307975622           0.9749624709048232 1.0000   
         C         C         1.0       0.6666636835347399  0.22482878251364244           0.9947108616675105 1.0000   
         C         C         1.0       0.6875626174032656  0.23343984052891872           0.00781344650275593          1.0000   
         C         C         1.0       0.7109782751290115  0.2344379262858808  0.001278946581286047         1.0000   
         C         C         1.0       0.7125880181076607  0.22608571631398175           0.9820253074652839 1.0000   
         C         C         1.0       0.6917527527485622  0.2167933906986959  0.969116250844213  1.0000   
         C         C         1.0       0.6715109805084654  0.2482618470175068  0.9356850483790348 1.0000   
         C         C         1.0       0.6787141313376253  0.27293043894363556           0.9267857194319264 1.0000   
         C         C         1.0       0.6692993896278362  0.2894570995608542  0.9356196646940795 1.0000   
         C         C         1.0       0.6533233166432826  0.2797799928025059  0.9535594503975023 1.0000   
         C         C         1.0       0.6474012672918308  0.25582624535130083           0.9611265192245337 1.0000   
         C         C         1.0       0.6542428327615994  0.2378395808743868  0.951938354859904  1.0000   
         H         H         1.0       0.977359960911223   0.14977308324739907           0.9921924861376216 1.0000   
         H         H         1.0       0.5389228268285957  0.1250522042881067  0.9587339007021957 1.0000   
         H         H         1.0       0.5128555981887574  0.08926466509350238           0.9345974514689247 1.0000   
         H         H         1.0       0.9449469150522081  0.11896513643021175           0.9662668383267939 1.0000   
         H         H         1.0       0.5401114534610939  0.10746437365856258           0.9947107449245087 1.0000   
         H         H         1.0       0.5251531699270285  0.07367105873739128           0.022945476197018453         1.0000   
         H         H         1.0       0.9885430817222582  0.11932818816940544           0.05856037444909614          1.0000   
         H         H         1.0       0.9975459619573734  0.1492153126177602  0.03273102088147183          1.0000   
         H         H         1.0       0.5502473405028165  0.1802372804271392  0.952616759167206  1.0000   
         H         H         1.0       0.5970407699216599  0.2072578813245317  0.943131837441476  1.0000   
         H         H         1.0       0.6195781872969937  0.17448932285387753           0.9944964062803525 1.0000   
         H         H         1.0       0.5739077406279818  0.152045549275735   0.006172738953092737         1.0000   
         H         H         1.0       0.6196062055474811  0.16351889584270302           0.895409625444955  1.0000   
         H         H         1.0       0.6294274124498495  0.2012103396382281  0.916219625549025  1.0000   
         H         H         1.0       0.6444678828606215  0.16112643223053666           0.9659589432415409 1.0000   
         H         H         1.0       0.6352169548084298  0.12250870875065638           0.9428835681819177 1.0000   
         H         H         1.0       0.6486643065076194  0.22699356060458198           0.9985470898584959 1.0000   
         H         H         1.0       0.6849778565182693  0.24015551674008395           0.023482766772697318         1.0000   
         H         H         1.0       0.732162645615417   0.230144462516714   0.9763202638768192 1.0000   
         H         H         1.0       0.6929581900389109  0.20934878303556873           0.9535129085553407 1.0000   
         H         H         1.0       0.6831149866108895  0.23786938145284758           0.9318530001939546 1.0000   
         H         H         1.0       0.6954932615396034  0.28116038799218224           0.9159994523497388 1.0000   
         H         H         1.0       0.6448175088035518  0.2922619004708254  0.9607511304778087 1.0000   
         H         H         1.0       0.6316566887688125  0.24743905511643574           0.9726119292784681 1.0000   
         C         C         1.0       0.8046388301404634  0.0083530032269008  0.8537771232366471 1.0000   
         C         C         1.0       0.8040990659901082  0.49003652283852    0.8483964393339071 1.0000   
         C         C         1.0       0.8258753972665576  0.4864543980954902  0.8542804218054364 1.0000   
         C         C         1.0       0.8393207791728036  0.49810207068539747           0.8727439654715979 1.0000   
         C         C         1.0       0.8388029636121584  0.011941423279641867         0.8761549197282658 1.0000   
         C         C         1.0       0.8197180629384879  0.01790605668384733           0.8711159561000952 1.0000   
         H         H         1.0       0.7946916842937052  0.48285832155782565           0.832939058005741  1.0000   
         H         H         1.0       0.834792920398805   0.4795406194780844  0.8433971140963745 1.0000   
         H         H         1.0       0.8476134134934633  0.017160797986464298         0.8914629111541114 1.0000   
         H         H         1.0       0.81518284286092    0.02891397999492194           0.882230143241074  1.0000   
         C         C         1.0       0.9027144004250975  0.04392908254897079           0.8793207389867204 1.0000   
         C         C         1.0       0.8949194611290134  0.016248770929576294         0.8829240115573337 1.0000   
         C         C         1.0       0.9088513977728248  0.010354288080837735         0.8981472771406679 1.0000   
         C         C         1.0       0.9283594198788493  0.03170236013362065           0.9101965331662523 1.0000   
         C         C         1.0       0.9355385671512645  0.058923603684992804         0.9062251911930522 1.0000   
         C         C         1.0       0.9221937005101846  0.06430279956159182           0.8912448090521372 1.0000   
         C         C         1.0       0.8665020672473692  0.49672215164448524           0.8782741127957969 1.0000   
         C         C         1.0       0.8877919354087372  0.5039530597917423  0.8605084425822979 1.0000   
         C         C         1.0       0.9085724066061645  0.49787098663135215           0.8630200185298912 1.0000   
         C         C         1.0       0.927427300951997   0.5025911864000423  0.8483509781940848 1.0000   
         C         C         1.0       0.923536200849435   0.0035261685716802033        0.8142903398492829 1.0000   
         C         C         1.0       0.9055407132058647  0.01335129144558907           0.8141459789080229 1.0000   
         C         C         1.0       0.8916012939617787  0.01248037355765511           0.8313844229949343 1.0000   
         C         C         1.0       0.8401821750539418  0.4578925747905816  0.9048217747701388 1.0000   
         C         C         1.0       0.8268969337028466  0.4318908491206638  0.9101106801354698 1.0000   
         C         C         1.0       0.825949758890618   0.41126093322248347           0.8976693392028339 1.0000   
         C         C         1.0       0.8358139345800751  0.41847877958991503           0.8785380999170984 1.0000   
         C         C         1.0       0.8481927322248209  0.4455901492845697  0.8722367420552264 1.0000   
         C         C         1.0       0.8526613147262723  0.46531702209966574           0.8858188666814527 1.0000   
         C         C         1.0       0.8120690166388311  0.38084936408547226           0.9067887478499641 1.0000   
         C         C         1.0       0.8862966572062516  0.3890098970913015  0.9359482269885502 1.0000   
         C         C         1.0       0.86637479445051    0.3894825097775077  0.9475633700748364 1.0000   
         C         C         1.0       0.8419370451912472  0.3851987442269534  0.938981512260249  1.0000   
         C         C         1.0       0.8391093482294578  0.38478417192998665           0.9182716136597994 1.0000   
         C         C         1.0       0.8606889148078661  0.38646289503424386           0.9066456044608979 1.0000   
         C         C         1.0       0.8834062912591691  0.38773390698011617           0.915402827094332  1.0000   
         C         C         1.0       0.8000973566028386  0.3570621260379115  0.8898063986548966 1.0000   
         C         C         1.0       0.7880816066996833  0.35810203926312634           0.8722044688452787 1.0000   
         C         C         1.0       0.7741139706031321  0.33495182681159463           0.8596439263588459 1.0000   
         C         C         1.0       0.7744116936831829  0.31128815411676647           0.8653871483070542 1.0000   
         C         C         1.0       0.7885160263523555  0.3106786453467093  0.8825926176870569 1.0000   
         C         C         1.0       0.8007573974247514  0.33332222668790334           0.8944624111033841 1.0000   
         C         C         1.0       0.7733907342247017  0.35347207302744504           0.9349690070249648 1.0000   
         C         C         1.0       0.7467145077254479  0.3418542162936636  0.9415218550264183 1.0000   
         C         C         1.0       0.730111516320822   0.3510027982088857  0.9337452960763665 1.0000   
         C         C         1.0       0.7392402646487661  0.36899173050325434           0.9178105235710434 1.0000   
         C         C         1.0       0.7657515235027506  0.37949720022495376           0.9104018073726703 1.0000   
         C         C         1.0       0.7834841905683823  0.3720160492089895  0.9192566096681549 1.0000   
         H         H         1.0       0.8957557744161535  0.05076696657184305           0.865764158909836  1.0000   
         H         H         1.0       0.8963010695737654  0.493736136840468   0.9134879047326375 1.0000   
         H         H         1.0       0.9409646980448556  0.029197783469485834         0.9213370205361572 1.0000   
         H         H         1.0       0.930608608808135   0.08556172118784164           0.8875497194729195 1.0000   
         H         H         1.0       0.9116658516940358  0.4905355714608696  0.8777929561826227 1.0000   
         H         H         1.0       0.9419343537480493  0.49624394935354915           0.8517361354616022 1.0000   
         H         H         1.0       0.9040972753390277  0.02390855140961753           0.8012202747706059 1.0000   
         H         H         1.0       0.8766807568663184  0.018150606547167367         0.8281688388566144 1.0000   
         H         H         1.0       0.8388412401955706  0.47254949301073124           0.9147256689996168 1.0000   
         H         H         1.0       0.8178618418795188  0.42600472590298577           0.9252311355233896 1.0000   
         H         H         1.0       0.8338939447143938  0.4038399057074839  0.8672000083172852 1.0000   
         H         H         1.0       0.8529493460032301  0.44986949264748843           0.8562884263938146 1.0000   
         H         H         1.0       0.8686777928492498  0.3921961774208153  0.9627966831210262 1.0000   
         H         H         1.0       0.8257130295438442  0.38479789388286434           0.9478382972003294 1.0000   
         H         H         1.0       0.8589380514729806  0.3854607912690606  0.8900314204468802 1.0000   
         H         H         1.0       0.8985361959761008  0.38641276881113507           0.9057323737395385 1.0000   
         H         H         1.0       0.7856452431773724  0.3763150512443773  0.8689631769646702 1.0000   
         H         H         1.0       0.7610080277930734  0.335017778052526   0.8474283943441501 1.0000   
         H         H         1.0       0.7868133972867126  0.2917035040250016  0.886776966824567  1.0000   
         H         H         1.0       0.8090583465877599  0.32840938750607673           0.9078814848831401 1.0000   
         H         H         1.0       0.7864239910711175  0.3473506681185239  0.9416205390108525 1.0000   
         H         H         1.0       0.741240251475664   0.3296799394638411  0.9545503200918155 1.0000   
         H         H         1.0       0.7243198290559053  0.37339214541394744           0.9104825386634147 1.0000   
         H         H         1.0       0.7716397003560652  0.39422715165577843           0.8977720164564079 1.0000   
         C         C         1.0       0.8006919978726443  0.23237397493013048           0.3368623057459836 1.0000   
         C         C         1.0       0.8071611042661254  0.2533945403258131  0.3499412306621729 1.0000   
         C         C         1.0       0.8296583148943996  0.27868614725460295           0.3469652884882551 1.0000   
         C         C         1.0       0.8460722828807248  0.2830614275456719  0.3300914646100617 1.0000   
         C         C         1.0       0.8376312145281598  0.2631330099353488  0.31506945421061844          1.0000   
         C         C         1.0       0.8141520838702184  0.23763740406235453           0.3189368334347799 1.0000   
         H         H         1.0       0.795023842791668   0.2507831943381592  0.36390036088760364          1.0000   
         H         H         1.0       0.8365579099051367  0.2968280787291731  0.35661883342447187          1.0000   
         H         H         1.0       0.8485673153985507  0.26772560823180885           0.30098606696088515          1.0000   
         H         H         1.0       0.8075222424391882  0.22099932268483094           0.3079526758122441 1.0000   
         C         C         1.0       0.9037526510734927  0.2940115582268056  0.31462257822132306          1.0000   
         C         C         1.0       0.8961310133918271  0.3141387001255286  0.3122287384014311 1.0000   
         C         C         1.0       0.9089615242302109  0.3340678061354539  0.2973900532163376 1.0000   
         C         C         1.0       0.9259077648066558  0.33198733588239765           0.282928408059036  1.0000   
         C         C         1.0       0.9337849955383917  0.3123870060281803  0.2859550796616829 1.0000   
         C         C         1.0       0.9221169344529083  0.29368588116189254           0.3013068810391012 1.0000   
         C         C         1.0       0.8729767427027995  0.3138274213742475  0.3268550191463532 1.0000   
         C         C         1.0       0.8914744606210402  0.3304851702170023  0.34530132977029354          1.0000   
         C         C         1.0       0.9091407189252552  0.3589625463611352  0.34459820146920456          1.0000   
         C         C         1.0       0.9263163670414827  0.3737205530667437  0.3608283404920395 1.0000   
         C         C         1.0       0.9245043731524674  0.3594545304536511  0.37857882827875733          1.0000   
         C         C         1.0       0.9045616335188338  0.3331435906220938  0.3800611908129893 1.0000   
         C         C         1.0       0.8897743728704278  0.3179946355350514  0.36407509111011216          1.0000   
         C         C         1.0       0.8471598303567371  0.3224949468642894  0.2957978501653586 1.0000   
         C         C         1.0       0.8332843976755685  0.3341080320831218  0.28680556930884143          1.0000   
         C         C         1.0       0.8268412526420147  0.3508004545900196  0.2979034478228236 1.0000   
         C         C         1.0       0.8344375694348856  0.3555030820469602  0.31774458262005323          1.0000   
         C         C         1.0       0.8499806104396515  0.3456694353647686  0.3264822855941294 1.0000   
         C         C         1.0       0.857405405514631   0.3288436360802311  0.31572033991983006          1.0000   
         C         C         1.0       0.807557257073471   0.3622004322971851  0.2882776463315635 1.0000   
         C         C         1.0       0.8706084012510352  0.4118739000717788  0.24446285161877007          1.0000   
         C         C         1.0       0.8491497337889887  0.3859447009654801  0.23942542420911544          1.0000   
         C         C         1.0       0.827299514206805   0.37142593216224634           0.25174525240957113          1.0000   
         C         C         1.0       0.8270002210722204  0.3809354704508051  0.27062521987563515          1.0000   
         C         C         1.0       0.8478849412273292  0.40593408783182716           0.27633594705119285          1.0000   
         C         C         1.0       0.8696336081100167  0.42153738700564114           0.26317017758737615          1.0000   
         C         C         1.0       0.7948253976927535  0.3773283624399803  0.3012750804162909 1.0000   
         C         C         1.0       0.7857802025095971  0.3706614686345332  0.3210865107188141 1.0000   
         C         C         1.0       0.7747846084875436  0.38355941353484685           0.3314399868086046 1.0000   
         C         C         1.0       0.7715379911775159  0.40332810170056593           0.3219673137678654 1.0000   
         C         C         1.0       0.7824066992492731  0.4127835894667941  0.30299436267312063          1.0000   
         C         C         1.0       0.7919361343981542  0.39844432442935224           0.2925335570039624 1.0000   
         C         C         1.0       0.765481525883218   0.33904279859751657           0.26415066143694693          1.0000   
         C         C         1.0       0.7408316697251816  0.3188724774007014  0.25871295834937136          1.0000   
         C         C         1.0       0.7324084986226264  0.2932715025191865  0.2670197644299698 1.0000   
         C         C         1.0       0.7461910672196032  0.2899260691916974  0.2831960055279842 1.0000   
         C         C         1.0       0.7686411800117577  0.3118298372318993  0.2906181484165723 1.0000   
         C         C         1.0       0.7793752325356033  0.33654754747635957           0.28032788720590307          1.0000   
         H         H         1.0       0.8954281333315303  0.28042523723493334           0.3273076295455865 1.0000   
         H         H         1.0       0.9027305768097627  0.3482612816995681  0.29407594977141915          1.0000   
         H         H         1.0       0.93478731056855    0.34765412903552845           0.27147551475076565          1.0000   
         H         H         1.0       0.9262284494145038  0.27679654083855537           0.3016417161159161 1.0000   
         H         H         1.0       0.9128816658018952  0.3706226740118197  0.33132307561917984          1.0000   
         H         H         1.0       0.9396476068831313  0.3954022692055881  0.3593408936688576 1.0000   
         H         H         1.0       0.9021735631350841  0.32474669783420257           0.3945510414958735 1.0000   
         H         H         1.0       0.8803365086949102  0.2960662493580031  0.36430308327410443          1.0000   
         H         H         1.0       0.8499074212341684  0.30781280903783703           0.2863433415935456 1.0000   
         H         H         1.0       0.825974088893015   0.3295406862680596  0.27065805188859937          1.0000   
         H         H         1.0       0.8310531074682201  0.3694815187100036  0.3257861772863231 1.0000   
         H         H         1.0       0.856296619167238   0.3515790401445145  0.34235609676240714          1.0000   
         H         H         1.0       0.8503214582250236  0.3783857167610799  0.22519717295359376          1.0000   
         H         H         1.0       0.8121471190686583  0.35064113428606214           0.24696297293864633          1.0000   
         H         H         1.0       0.8499826000568971  0.413108941522365   0.29159800249540113          1.0000   
         H         H         1.0       0.886669236058197   0.44006542556154027           0.26891406551932584          1.0000   
         H         H         1.0       0.7848136344296132  0.35236652120422735           0.327843407224765  1.0000   
         H         H         1.0       0.7648317337952474  0.37585708519293964           0.3468423595717255 1.0000   
         H         H         1.0       0.778876189600273   0.4283347533531559  0.2953337175677384 1.0000   
         H         H         1.0       0.7969084645181286  0.40557508887435134           0.27747671592911416          1.0000   
         H         H         1.0       0.7721831023891133  0.358018645005684   0.25629941602162337          1.0000   
         H         H         1.0       0.7292754536594399  0.3221220093772837  0.24753181513577982          1.0000   
         H         H         1.0       0.7393781039353097  0.27101051524199    0.2909087644251678 1.0000   
         H         H         1.0       0.776512199457989   0.30803502322916865           0.3051744004233358 1.0000   
         C         C         1.0       0.5081679639592057  0.2059363329704036  0.1911452327524244 1.0000   
         C         C         1.0       0.5266661688745194  0.22672191783096918           0.17884383332106624          1.0000   
         C         C         1.0       0.5383022161328779  0.25260142794019075           0.18534569271289042          1.0000   
         C         C         1.0       0.5301786869382499  0.25892707524566955           0.203314856901474  1.0000   
         C         C         1.0       0.5156310438191857  0.23847579592279353           0.216506498419993  1.0000   
         C         C         1.0       0.5042849869122378  0.2117969374111893  0.21083173837099084          1.0000   
         H         H         1.0       0.530893305951611   0.2209090166269114  0.16353161533490307          1.0000   
         H         H         1.0       0.5507213595359325  0.26871041638288584           0.17455712006600907          1.0000   
         H         H         1.0       0.5125817909299776  0.24401042113820737           0.2319258681398542 1.0000   
         H         H         1.0       0.4900440361827086  0.19717336718921874           0.22112567536105177          1.0000   
         C         C         1.0       0.9894833643635785  0.27723729062695773           0.22456372607768998          1.0000   
         C         C         1.0       0.5139906267022745  0.29126311486977996           0.2206552825238908 1.0000   
         C         C         1.0       0.521433209804377   0.3144319780469892  0.23223675034073502          1.0000   
         C         C         1.0       0.013821919796387139          0.31490742395823745          0.25463129178454286          1.0000   
         C         C         1.0       0.9862005273068992  0.297364496542006   0.2546651483824557 1.0000   
         C         C         1.0       0.9743397778154116  0.27905677426581416           0.23949326474899116          1.0000   
         C         C         1.0       0.5359086377847289  0.28853979387681816           0.20640718279167544          1.0000   
         C         C         1.0       0.5300663830943242  0.3021241696022326  0.18700727168757456          1.0000   
         C         C         1.0       0.5426070096018205  0.33034489335178935           0.18492009933487968          1.0000   
         C         C         1.0       0.5337593314012801  0.3414988702002478  0.16966476391528137          1.0000   
         C         C         1.0       0.5175969629873365  0.32529579363209865           0.15421186175402585          1.0000   
         C         C         1.0       0.5083124310556555  0.29824628048499685           0.15420631436293197          1.0000   
         C         C         1.0       0.5128481079731174  0.2866752246284093  0.17166067496063336          1.0000   
         C         C         1.0       0.5689253955771112  0.29791636112075565           0.23664269536097723          1.0000   
         C         C         1.0       0.5935328756646437  0.3085274214051277  0.24581310950314358          1.0000   
         C         C         1.0       0.6173513321699204  0.3268123160728472  0.23510791906327755          1.0000   
         C         C         1.0       0.613881404101182   0.3336213116295954  0.21547348286410292          1.0000   
         C         C         1.0       0.5895611237844406  0.3198514053005405  0.205315992091264  1.0000   
         C         C         1.0       0.5652651813095735  0.302909294671261   0.21628895720363944          1.0000   
         C         C         1.0       0.6456790430669993  0.3401913064243162  0.2468945527523022 1.0000   
         C         C         1.0       0.6318191410881344  0.3984436803498841  0.281441676246023  1.0000   
         C         C         1.0       0.6318212665200128  0.37728455102585917           0.29235491951721293          1.0000   
         C         C         1.0       0.6352224436828058  0.3576790378924307  0.28209583397346283          1.0000   
         C         C         1.0       0.6428370633152239  0.36113231194969936           0.26138295417457946          1.0000   
         C         C         1.0       0.6417783505799893  0.3826905071525363  0.25092308897504956          1.0000   
         C         C         1.0       0.6356807766342528  0.4000992548812096  0.2611794418756035 1.0000   
         C         C         1.0       0.6716357595812645  0.3543696703014218  0.2329073438535112 1.0000   
         C         C         1.0       0.6736929261258401  0.3421213722186542  0.21484407962106686          1.0000   
         C         C         1.0       0.6966541789274465  0.3533413278603461  0.20393057982184856          1.0000   
         C         C         1.0       0.719065138984191   0.3780470488139018  0.20897711611949957          1.0000   
         C         C         1.0       0.7186050094662951  0.39123317943540514           0.2269805849794727 1.0000   
         C         C         1.0       0.6951745667780671  0.37889073416941693           0.23845705467227102          1.0000   
         C         C         1.0       0.639696100479296   0.2917547189680592  0.24808866258252635          1.0000   
         C         C         1.0       0.646307212765883   0.27322891619710293           0.25622145664445395          1.0000   
         C         C         1.0       0.6656188394454601  0.28114216706234035           0.27125233160964496          1.0000   
         C         C         1.0       0.6748292300173969  0.30587726140524496           0.28119363664667674          1.0000   
         C         C         1.0       0.668050534449524   0.324065336934855   0.2740982110279218 1.0000   
         C         C         1.0       0.6496953207714636  0.3174688993211628  0.25765448595073615          1.0000   
         H         H         1.0       0.9772470555167655  0.2629212958554538  0.2110139490408902 1.0000   
         H         H         1.0       0.5423980967857321  0.3307492209020522  0.23188344720299633          1.0000   
         H         H         1.0       0.5120168007118756  0.33651437846238097           0.250757452211996  1.0000   
         H         H         1.0       0.9528082432877714  0.26991223158026584           0.23812990967867015          1.0000   
         H         H         1.0       0.5557950475512411  0.34331925495333604           0.19576278210647735          1.0000   
         H         H         1.0       0.5401832960521481  0.3635451577176403  0.17138941262562724          1.0000   
         H         H         1.0       0.49588034437592393           0.2837096026032632 0.14202606024208106          1.0000   
         H         H         1.0       0.5022762953106562  0.26457685204327347           0.17289300686941977          1.0000   
         H         H         1.0       0.5510251688903376  0.2837427189753628  0.2446969174108893 1.0000   
         H         H         1.0       0.5919854789950135  0.30331662235074    0.26224615634315224          1.0000   
         H         H         1.0       0.6315354223876039  0.3471169230613126  0.20678775139096148          1.0000   
         H         H         1.0       0.5904913539112115  0.32624000463588027           0.18991503850938582          1.0000   
         H         H         1.0       0.628153060229889   0.37451928269411794           0.30795021841938996          1.0000   
         H         H         1.0       0.6334234235324561  0.34038486995104095           0.29129494050945953          1.0000   
         H         H         1.0       0.6451340752607171  0.38691281890247214           0.23486091165930306          1.0000   
         H         H         1.0       0.6337430176756674  0.4152561084992868  0.25127723088031795          1.0000   
         H         H         1.0       0.657411853801584   0.3220386159885185  0.21104345973778785          1.0000   
         H         H         1.0       0.6956713389676008  0.34143583259012145           0.19062508381973234          1.0000   
         H         H         1.0       0.7365903424433166  0.4097803432162414  0.23160452486965724          1.0000   
         H         H         1.0       0.6961123134677993  0.3894250215988686  0.2524018529579256 1.0000   
         H         H         1.0       0.6267455133422629  0.2840629659476527  0.23466322589738042          1.0000   
         H         H         1.0       0.6397638186505182  0.25431592894837185           0.24758379950598441          1.0000   
         H         H         1.0       0.6916604023663201  0.31264310303148923           0.2924360169378275 1.0000   
         H         H         1.0       0.6777597966034267  0.3450930040945108  0.27951288867754387          1.0000   
         C         C         1.0       0.7704979316544452  0.41878748276430683           0.16651870009674463          1.0000   
         C         C         1.0       0.7836424222948154  0.4056121521260278  0.1595468070519385 1.0000   
         C         C         1.0       0.8100804911946539  0.4211818040064931  0.15357868715340048          1.0000   
         C         C         1.0       0.823335246854691   0.44939596015667455           0.15254702999149475          1.0000   
         C         C         1.0       0.8105359266573762  0.4626451654461925  0.16004662899352645          1.0000   
         C         C         1.0       0.7842489680840601  0.4486354486333701  0.16652554533351824          1.0000   
         H         H         1.0       0.7725566589396091  0.3838920164268183  0.15719630227200473          1.0000   
         H         H         1.0       0.8231824318579851  0.41419607398504044           0.14994462563257288          1.0000   
         H         H         1.0       0.8215488213169362  0.4843889983792376  0.16275130249061026          1.0000   
         H         H         1.0       0.7730019781155295  0.45870269902763317           0.17150861778984997          1.0000   
         C         C         1.0       0.8422269469954917  0.4421001728964542  0.11216640761409692          1.0000   
         C         C         1.0       0.8629341940287254  0.45536499061488234           0.12671137232098345          1.0000   
         C         C         1.0       0.8893277340990854  0.45965492708901506           0.12249182424964639          1.0000   
         C         C         1.0       0.8939730746667944  0.44883712476380316           0.10468719841570617          1.0000   
         C         C         1.0       0.8725682208503763  0.4333940391917424  0.09191088746713537          1.0000   
         C         C         1.0       0.8471368166291743  0.4291637486470419  0.09622906495394544          1.0000   
         C         C         1.0       0.8557830822814276  0.4658920494811905  0.14715186190202664          1.0000   
         C         C         1.0       0.8675835956861127  0.459712097134172   0.1671814077735102 1.0000   
         C         C         1.0       0.8671438515233078  0.47270620317160655           0.1853074568220679 1.0000   
         C         C         1.0       0.8774433218527938  0.469060837870679   0.2026036411864213 1.0000   
         C         C         1.0       0.8872324025622182  0.45093883064819096           0.20298301988219022          1.0000   
         C         C         1.0       0.8896314098266301  0.43861628223550325           0.18547823325854687          1.0000   
         C         C         1.0       0.8784384300384701  0.4412344273739335  0.16774622988996588          1.0000   
         C         C         1.0       0.8532346225091029  0.006323468416007564         0.12796515409569667          1.0000   
         C         C         1.0       0.8652708804442873  0.033034027831350635         0.12093042035067919          1.0000   
         C         C         1.0       0.8918659935073141  0.05309143596739986           0.1283084054006516 1.0000   
         C         C         1.0       0.9053783239934046  0.04396974980741419           0.14112732676148482          1.0000   
         C         C         1.0       0.8937974380128136  0.017155295132158917         0.1463890210721179 1.0000   
         C         C         1.0       0.8666504638836879  0.9969231153344643  0.14072668859358223          1.0000   
         C         C         1.0       0.9067756893790393  0.08348605902323972           0.11998279890289855          1.0000   
         C         C         1.0       0.954343785169132   0.06512970859413006           0.07838853325203114          1.0000   
         C         C         1.0       0.9288859621169554  0.06115297290059941           0.07249871199010316          1.0000   
         C         C         1.0       0.9144643865723661  0.06865155912917331           0.08480921895572402          1.0000   
         C         C         1.0       0.9255883573224659  0.08086457166071497           0.10361485617389458          1.0000   
         C         C         1.0       0.9500894058757791  0.08252067165063946           0.10993530007001423          1.0000   
         C         C         1.0       0.96456735910973    0.07616151083587559           0.0972967292242226 1.0000   
         C         C         1.0       0.922819610515854   0.10557989285124264           0.13688339233976637          1.0000   
         C         C         1.0       0.9130242114121111  0.10184090014694552           0.15723974858482592          1.0000   
         C         C         1.0       0.928230059462112   0.11990851625381314           0.1718744628862215 1.0000   
         C         C         1.0       0.9520953811093121  0.143210601834254   0.1677537133598472 1.0000   
         C         C         1.0       0.9610398054253682  0.14930344499154521           0.14778320682332116          1.0000   
         C         C         1.0       0.9462618054411472  0.13047589691832645           0.13322702483007307          1.0000   
         C         C         1.0       0.8952076190593324  0.1118672147968547  0.09561999599452473          1.0000   
         C         C         1.0       0.8790969555455922  0.12138087749521424           0.08787580068488487          1.0000   
         C         C         1.0       0.8533979345800969  0.11120931301425463           0.09480152410372981          1.0000   
         C         C         1.0       0.8449951890183309  0.09343145319035723           0.11110236854122633          1.0000   
         C         C         1.0       0.8618701577113395  0.08567939928981096           0.11955091521314343          1.0000   
         C         C         1.0       0.8867741431057848  0.09383983466608185           0.11207699807527256          1.0000   
         H         H         1.0       0.822147052565631   0.43888844950231826           0.11447041439214409          1.0000   
         H         H         1.0       0.9062398803475582  0.471059603866663   0.1325854790717957 1.0000   
         H         H         1.0       0.9134177045775652  0.45108949541576276           0.1010578409744732 1.0000   
         H         H         1.0       0.8297183226158931  0.41446315442024934           0.08698687331515535          1.0000   
         H         H         1.0       0.8581890490878059  0.4863484559796148  0.18481600468202336          1.0000   
         H         H         1.0       0.8801052594519554  0.4828619315136488  0.2158843391246345 1.0000   
         H         H         1.0       0.8960174284505329  0.42393847357199943           0.18696350293362182          1.0000   
         H         H         1.0       0.8751459067204833  0.428502976353194   0.15522479720365798          1.0000   
         H         H         1.0       0.8405467622373739  0.4926045650997129  0.11884671460760252          1.0000   
         H         H         1.0       0.8532502586987046  0.036004302531142965         0.1098318668136525 1.0000   
         H         H         1.0       0.9245129599911098  0.0563857590833922  0.1475532510400317 1.0000   
         H         H         1.0       0.9044153163166282  0.012003256167706575         0.15737395104722288          1.0000   
         H         H         1.0       0.9192655214047473  0.04990457193421555           0.05907918206290754          1.0000   
         H         H         1.0       0.8945192362603404  0.061781897267420595         0.07881294522808213          1.0000   
         H         H         1.0       0.9617926876814865  0.09181818258433139           0.12384971496432627          1.0000   
         H         H         1.0       0.4812004325172342  0.07322757559003053           0.09661046292214576          1.0000   
         H         H         1.0       0.8934338904971342  0.08260639684590938           0.1600535451641634 1.0000   
         H         H         1.0       0.919027829785249   0.1169266600254572  0.18643820882676557          1.0000   
         H         H         1.0       0.9812671906124467  0.16771195337071113           0.14391819090307417          1.0000   
         H         H         1.0       0.9536960378536705  0.13616282180579756           0.11674666047048085          1.0000   
         H         H         1.0       0.9157781596691154  0.11923827837848687           0.0897109343998439 1.0000   
         H         H         1.0       0.887470193040277   0.135797026233866   0.07498571057330598          1.0000   
         H         H         1.0       0.8241301064774739  0.08543726215767165           0.11754525938585336          1.0000   
         H         H         1.0       0.8539882509208294  0.0709992485601309  0.13160082738380727          1.0000   
         C         C         1.0       0.7790106792430316  0.24345090522591212           0.024250958448184916         1.0000   
         C         C         1.0       0.7957943659423811  0.24605095237341731           0.008179040914419644         1.0000   
         C         C         1.0       0.8222178146853619  0.26500156521537044           0.009761385122147396         1.0000   
         C         C         1.0       0.8335800856717386  0.2797426452998     0.027661168346483505         1.0000   
         C         C         1.0       0.8165961066756121  0.27453578624508457           0.04401889760006477          1.0000   
         C         C         1.0       0.7895191396192455  0.2554086697121428  0.04251496923122127          1.0000   
         H         H         1.0       0.7889003257456619  0.233564485981789   0.9951593479236706 1.0000   
         H         H         1.0       0.8368682948751248  0.2659870052644539  0.9975540606135259 1.0000   
         H         H         1.0       0.822053163708684   0.2859924084973585  0.05806019845456031          1.0000   
         H         H         1.0       0.7766243859622798  0.25312780190156925           0.05504115747476485          1.0000   
         C         C         1.0       0.8480006278972485  0.33873876480300497           0.03988021227772299          1.0000   
         C         C         1.0       0.8681295442431783  0.3317860374886376  0.03926153163629555          1.0000   
         C         C         1.0       0.8932833489204913  0.3492203804423477  0.04887941520559495          1.0000   
         C         C         1.0       0.8963296975485775  0.3702917229279759  0.06097590107374641          1.0000   
         C         C         1.0       0.8730857642315686  0.3729901927296593  0.06426188710101395          1.0000   
         C         C         1.0       0.8489940741287187  0.3573343883070935  0.053721720167475215         1.0000   
         C         C         1.0       0.863168233393511   0.30493057134150653           0.02616837184031929          1.0000   
         C         C         1.0       0.8754006604535507  0.31852039030372603           0.004221989302536798         1.0000   
         C         C         1.0       0.9027401899301185  0.33105523420343763           4.698026116370947e-05        1.0000   
         C         C         1.0       0.9133647051959333  0.3463871269596858  0.9831926256945202 1.0000   
         C         C         1.0       0.8960664859985601  0.34787844532137024           0.968775105108041  1.0000   
         C         C         1.0       0.8679555377832229  0.3358915292216357  0.972841764538618  1.0000   
         C         C         1.0       0.8579278089014831  0.32197260344946255           0.9912620251889127 1.0000   
         C         C         1.0       0.8798293539006844  0.2889074429489581  0.058217978949957325         1.0000   
         C         C         1.0       0.8924958270505984  0.27834130300575505           0.0687925015278091 1.0000   
         C         C         1.0       0.907015409572571   0.26856420976971473           0.05889515558855971          1.0000   
         C         C         1.0       0.9050735146076874  0.26783413954195634           0.03749822601437884          1.0000   
         C         C         1.0       0.8898373759570991  0.27637978868648805           0.027031485042493607         1.0000   
         C         C         1.0       0.8775733303978025  0.2888717761701406  0.03765504171170346          1.0000   
         C         C         1.0       0.9243249227289756  0.2585395704762044  0.07173487156233278          1.0000   
         C         C         1.0       0.9751447811745401  0.32100257513786823           0.1175929724675627 1.0000   
         C         C         1.0       0.9605753675627728  0.29376595156112717           0.12272184778913846          1.0000   
         C         C         1.0       0.9444273435864392  0.2741317569680143  0.10880647976664135          1.0000   
         C         C         1.0       0.9418985407602458  0.2820960570463972  0.08915407454024084          1.0000   
         C         C         1.0       0.9556276897150494  0.30911505430073255           0.08399192843967017          1.0000   
         C         C         1.0       0.971718114502425   0.32804277183541436           0.0979438948078425 1.0000   
         C         C         1.0       0.9515639404393328  0.25931924043725985           0.06326621568365072          1.0000   
         C         C         1.0       0.9587400319768129  0.24111810461609232           0.07038915924237986          1.0000   
         C         C         1.0       0.9834186977003359  0.24361453642336045           0.06479842073557614          1.0000   
         C         C         1.0       0.00022214029217515474        0.26296404856901334          0.05084990435691408          1.0000   
         C         C         1.0       0.9914709632416806  0.28054453166928645           0.042534984541919056         1.0000   
         C         C         1.0       0.9681635606063638  0.2783944490575647  0.049204674432749076         1.0000   
         C         C         1.0       0.887084501006755   0.22354070513580673           0.0973306804644376 1.0000   
         C         C         1.0       0.8684619217953383  0.19653917424994724           0.10231193884892027          1.0000   
         C         C         1.0       0.8601672617630436  0.1763309817327024  0.08823792925460769          1.0000   
         C         C         1.0       0.8711620910281719  0.18127889939640193           0.06944988189881748          1.0000   
         C         C         1.0       0.8916096616856047  0.20633625556266416           0.06485008545686656          1.0000   
         C         C         1.0       0.9003720369935343  0.22839329707988526           0.07877735963728992          1.0000   
         H         H         1.0       0.8295410475228747  0.32512854299902194           0.03187123850589328          1.0000   
         H         H         1.0       0.9097435809985915  0.3452759469712457  0.046133667131115275         1.0000   
         H         H         1.0       0.9153718799071038  0.38048182399362496           0.06911412360763132          1.0000   
         H         H         1.0       0.8315843550607187  0.35809227839520624           0.05676575275907751          1.0000   
         H         H         1.0       0.9162810532373545  0.3277621473078879  0.01004925341443636          1.0000   
         H         H         1.0       0.9339058205255156  0.35582646183934397           0.9803422009690146 1.0000   
         H         H         1.0       0.8528421455713535  0.3361668884337437  0.962977167054976  1.0000   
         H         H         1.0       0.8367150735342187  0.31401085335690765           0.9961256067238675 1.0000   
         H         H         1.0       0.8714102616796722  0.29893053720846874           0.06624663029780956          1.0000   
         H         H         1.0       0.8939733605136713  0.2797356090094607  0.08538300300313388          1.0000   
         H         H         1.0       0.9131602353910109  0.2576072584372507  0.0289372483610139 1.0000   
         H         H         1.0       0.8887984983883801  0.2773452500718323  0.009907498266154148         1.0000   
         H         H         1.0       0.9615187449745091  0.2884095951307945  0.13840741371483525          1.0000   
         H         H         1.0       0.9361750795425753  0.2543141468453029  0.1140880184020823 1.0000   
         H         H         1.0       0.9561603225642961  0.31766606660128993           0.06847939564901624          1.0000   
         H         H         1.0       0.9810802113203251  0.3499131548712834  0.09505808673476987          1.0000   
         H         H         1.0       0.9434627548099296  0.22537330190560573           0.07958842607272243          1.0000   
         H         H         1.0       0.9869385596585122  0.22816515345547447           0.07045271914851181          1.0000   
         H         H         1.0       0.005137504088794209          0.30041995429704554          0.035045603790221674         1.0000   
         H         H         1.0       0.9622470266015751  0.29222654723116454           0.04346279136289049          1.0000   
         H         H         1.0       0.8889203494346914  0.24044547228623417           0.10557667837740066          1.0000   
         H         H         1.0       0.858904168945105   0.19318699108703974           0.11725656585270977          1.0000   
         H         H         1.0       0.8640843211057558  0.16512357424541205           0.05900760343079906          1.0000   
         H         H         1.0       0.904326642231144   0.2115460717726801  0.05121074610453097          1.0000   
         C         C         1.0       0.7580822715444112  0.24159421918728138           0.838557727293121  1.0000   
         C         C         1.0       0.7561031534816897  0.2219778038668747  0.8505688859921721 1.0000   
         C         C         1.0       0.7403254609392615  0.19467531897236878           0.8437027746754593 1.0000   
         C         C         1.0       0.7233658637865832  0.18873205035680413           0.8270862718159129 1.0000   
         C         C         1.0       0.7294076783245167  0.21062075511131198           0.8135930788956881 1.0000   
         C         C         1.0       0.7479481915488932  0.23672436767073765           0.8189118653685599 1.0000   
         H         H         1.0       0.7667120251741779  0.22792669954572778           0.8652087147926909 1.0000   
         H         H         1.0       0.735802148615009   0.17771607583430057           0.8537284199555174 1.0000   
         H         H         1.0       0.7166814422374134  0.209358075685833   0.8016083088073782 1.0000   
         H         H         1.0       0.7490492988798853  0.2526905778336464  0.8090375353816818 1.0000   
         C         C         1.0       0.6653125730889949  0.17218323123559431           0.8080692649843849 1.0000   
         C         C         1.0       0.6765365236142696  0.15565544860924208           0.8073694438697264 1.0000   
         C         C         1.0       0.6656407883407811  0.13502686503878997           0.7936323068435298 1.0000   
         C         C         1.0       0.6430003954338499  0.13056916662689882           0.782068518817028  1.0000   
         C         C         1.0       0.6327965036441852  0.14806464322328258           0.7822090364299521 1.0000   
         C         C         1.0       0.6427501136804233  0.16796683319965516           0.7964910574326086 1.0000   
         C         C         1.0       0.6995527726320458  0.15805324966865697           0.8244924318409509 1.0000   
         C         C         1.0       0.6824817140839774  0.14525893604144047           0.8443254854432447 1.0000   
         C         C         1.0       0.6634244122904063  0.11739788505061012           0.8459715644224    1.0000   
         C         C         1.0       0.6497311218414621  0.10515765669296774           0.8628513691113604 1.0000   
         C         C         1.0       0.6520254592812416  0.1210330155563748  0.8793285637041589 1.0000   
         C         C         1.0       0.6681027151704525  0.14955143718697878           0.8784696603267623 1.0000   
         C         C         1.0       0.6818139616584467  0.16104523619742353           0.8608832820390427 1.0000   
         C         C         1.0       0.7290745654248171  0.15215595088913228           0.7972050940705525 1.0000   
         C         C         1.0       0.7442424620270424  0.14138133257834995           0.7900577858635568 1.0000   
         C         C         1.0       0.7477839021477937  0.12300801111958866           0.8012168006475149 1.0000   
         C         C         1.0       0.736826259737063   0.1163501922355283  0.8200171501693388 1.0000   
         C         C         1.0       0.7215952832882069  0.12713449964966486           0.8274572663017166 1.0000   
         C         C         1.0       0.7164541299191798  0.14454059735192026           0.8154727476769086 1.0000   
         C         C         1.0       0.7613097742246459  0.10607888364652619           0.7897604378368956 1.0000   
         C         C         1.0       0.6879953000465352  0.05836147543385    0.7531384622176139 1.0000   
         C         C         1.0       0.7101188433282479  0.0817540334435803  0.7445169821750328 1.0000   
         C         C         1.0       0.7351553615932349  0.09621906590175927           0.7561752325072391 1.0000   
         C         C         1.0       0.7366243486798681  0.08673930832369785           0.7750729677694751 1.0000   
         C         C         1.0       0.7151110424203276  0.061738918540377885         0.7823044190219262 1.0000   
         C         C         1.0       0.691677139859511   0.047177081674933195         0.7707485242448634 1.0000   
         C         C         1.0       0.7708859212595102  0.08885191652492899           0.8039812546343774 1.0000   
         C         C         1.0       0.7833080912541108  0.09920898643559624           0.8230499056236962 1.0000   
         C         C         1.0       0.7914931895896903  0.08524522686058104           0.8352219149689935 1.0000   
         C         C         1.0       0.7887085625308426  0.05999980219927015           0.8280126866532915 1.0000   
         C         C         1.0       0.7774719245689742  0.05048258388392702           0.8090010854881173 1.0000   
         C         C         1.0       0.7688495725418535  0.06449869444369027           0.7972965941759678 1.0000   
         C         C         1.0       0.8070621995919417  0.1516749946307224  0.7888023527460077 1.0000   
         C         C         1.0       0.8321987258491546  0.16870864929383705           0.7813958890349723 1.0000   
         C         C         1.0       0.8440220837892003  0.15964694343498873           0.7672856736699997 1.0000   
         C         C         1.0       0.8277439092744868  0.1346783127026347  0.7576706525645901 1.0000   
         C         C         1.0       0.8010290185003468  0.11932497077007213           0.7639100312524902 1.0000   
         C         C         1.0       0.7903066603111177  0.12698591143072935           0.7798490005169884 1.0000   
         H         H         1.0       0.672180347620567   0.18725689735960194           0.8196363405560839 1.0000   
         H         H         1.0       0.6724152699848805  0.12015915806824563           0.7929071700328053 1.0000   
         H         H         1.0       0.6324613366245312  0.11103602222069957           0.7722775094461285 1.0000   
         H         H         1.0       0.6324476031349855  0.18012744932995983           0.797441604836637  1.0000   
         H         H         1.0       0.6616893891236311  0.10405138694609148           0.8335384865631769 1.0000   
         H         H         1.0       0.6369574310272555  0.0829805965322238  0.8628421871910609 1.0000   
         H         H         1.0       0.6676800174093783  0.16275414161453866           0.8906663064671544 1.0000   
         H         H         1.0       0.6943556818750987  0.18378656294260187           0.8609807684247784 1.0000   
         H         H         1.0       0.724790300567473   0.16638382759646836           0.7873015989346276 1.0000   
         H         H         1.0       0.7540336286612763  0.14595715363074674           0.7755035254088456 1.0000   
         H         H         1.0       0.7364636593358737  0.10129392162711721           0.8287274942280785 1.0000   
         H         H         1.0       0.7139011244622979  0.12078543163530729           0.8432403369907064 1.0000   
         H         H         1.0       0.7067877860028223  0.08844306887094001           0.7305193987158675 1.0000   
         H         H         1.0       0.751296217253575   0.11422108327927544           0.7498021328688621 1.0000   
         H         H         1.0       0.7160682353256563  0.053925962145019296         0.7982571479395145 1.0000   
         H         H         1.0       0.6736367702683608  0.027842291825170184         0.7761364505289875 1.0000   
         H         H         1.0       0.7837545349644572  0.11765181137588264           0.8271180586077513 1.0000   
         H         H         1.0       0.8042474491958329  0.09385057376702544           0.8481948199771157 1.0000   
         H         H         1.0       0.7752055743570948  0.033184455461128665         0.8020250744533519 1.0000   
         H         H         1.0       0.761232102981686   0.05704320266429028           0.7814353304175515 1.0000   
         H         H         1.0       0.7978687726964747  0.15872470474755018           0.800605262363893  1.0000   
         H         H         1.0       0.8440418869763732  0.18795543383789218           0.789226250935824  1.0000   
         H         H         1.0       0.8358313589320826  0.1274798788165717  0.7457061248687843 1.0000   
         H         H         1.0       0.7895103652556952  0.09913519505852315           0.7584887353080602 1.0000   
         C         C         1.0       0.5467583053245386  0.22814487419984408           0.6821784907208613 1.0000   
         C         C         1.0       0.534628813678353   0.2080159043890981  0.6678693384185371 1.0000   
         C         C         1.0       0.5272150827394554  0.18171788137623887           0.6721982625575119 1.0000   
         C         C         1.0       0.5361539258479692  0.17559524980726093           0.6909353440430671 1.0000   
         C         C         1.0       0.5477917180721812  0.19654155150670288           0.7059388170110129 1.0000   
         C         C         1.0       0.5539628218567595  0.22244162136395385           0.7013155399601838 1.0000   
         H         H         1.0       0.5275814508867313  0.21173559358693347           0.6536716093226815 1.0000   
         H         H         1.0       0.5154808441305545  0.16511007878816494           0.6622892288652362 1.0000   
         H         H         1.0       0.5499119018281831  0.1900970340454459  0.7215515206000613 1.0000   
         H         H         1.0       0.5639754739352433  0.2366098034874899  0.713481902945647  1.0000   
         C         C         1.0       0.5813584011949414  0.164419519851833   0.707926423606531  1.0000   
         C         C         1.0       0.5541728961918615  0.14510008622828433           0.709042582965598  1.0000   
         C         C         1.0       0.5478994627362923  0.1211235326763999  0.7198497056686087 1.0000   
         C         C         1.0       0.5670741084720666  0.12021433211520659           0.7330451750272169 1.0000   
         C         C         1.0       0.59327409853632    0.1404978769517415  0.732738392778692  1.0000   
         C         C         1.0       0.6009978037430563  0.1624092723190017  0.7202197885672547 1.0000   
         C         C         1.0       0.5329272966885541  0.14672197246262855           0.6945337250028949 1.0000   
         C         C         1.0       0.5385815702918586  0.13185256173933282           0.675342338323561  1.0000   
         C         C         1.0       0.526641005022976   0.10414784088202089           0.671950869671547  1.0000   
         C         C         1.0       0.5317339559571682  0.09410686793772707           0.655327088962945  1.0000   
         C         C         1.0       0.5474384608229432  0.11092062205479605           0.6398882319427097 1.0000   
         C         C         1.0       0.559733391918767   0.1390560717308214  0.6418122603291495 1.0000   
         C         C         1.0       0.555924747858946   0.14949448796865566           0.6596373083823724 1.0000   
         C         C         1.0       0.49929711923616754           0.13456593188449756          0.726026273353912  1.0000   
         C         C         1.0       0.9748102244465536  0.13046084004132913           0.7402283595667943 1.0000   
         C         C         1.0       0.9524099388917854  0.11069533975772115           0.7284073450399206 1.0000   
         C         C         1.0       0.957138459146076   0.10454903042012495           0.7097764910531085 1.0000   
         C         C         1.0       0.9824251822835984  0.11897533010114818           0.700866097471687  1.0000   
         C         C         1.0       0.5037507186541009  0.132451486510045   0.7055234963280645 1.0000   
         C         C         1.0       0.9236643203214311  0.0953013402279681  0.7397419781749036 1.0000   
         C         C         1.0       0.949636828415511   0.04803746297442337           0.7775442655989373 1.0000   
         C         C         1.0       0.9507958830092905  0.07101028072556695           0.7845445753990874 1.0000   
         C         C         1.0       0.9398480217668809  0.08477913408234655           0.7735092339792835 1.0000   
         C         C         1.0       0.9301442430891542  0.07658449083233725           0.7540896624408482 1.0000   
         C         C         1.0       0.9292944543705985  0.053182319883078324         0.746847458258557  1.0000   
         C         C         1.0       0.9386008063575539  0.039398750085351604         0.7584627808446687 1.0000   
         C         C         1.0       0.8971366674575172  0.07697000848974414           0.7252308654326467 1.0000   
         C         C         1.0       0.8931342393021067  0.08742912055377626           0.7069249111028031 1.0000   
         C         C         1.0       0.8685393033190555  0.0735998470527926  0.6974364869513404 1.0000   
         C         C         1.0       0.8465615249530599  0.05102181415549911           0.7050504771839151 1.0000   
         C         C         1.0       0.848550689629703   0.042801066735785785         0.7244013406965474 1.0000   
         C         C         1.0       0.8740158574391138  0.05508956246321875           0.7338731899155099 1.0000   
         C         C         1.0       0.901096155244364   0.11158991421646806           0.7657740553213819 1.0000   
         C         C         1.0       0.8939814392312689  0.13032381937223553           0.7733421350012779 1.0000   
         C         C         1.0       0.9035110115393841  0.15596778923052815           0.7639264976897978 1.0000   
         C         C         1.0       0.9212437879552746  0.1625073772704648  0.7485749038397664 1.0000   
         C         C         1.0       0.9270172970327138  0.1434659114701285  0.7398532510595698 1.0000   
         C         C         1.0       0.9169382724576505  0.1172096701722262  0.7486954576764192 1.0000   
         H         H         1.0       0.5892942184784711  0.18353579170697693           0.6994141576122261 1.0000   
         H         H         1.0       0.5270583729850283  0.10343045578285216           0.7187407141960258 1.0000   
         H         H         1.0       0.5626751222829798  0.10154792737822763           0.7416051439183714 1.0000   
         H         H         1.0       0.6219132058192064  0.17833729145899568           0.7201935635405897 1.0000   
         H         H         1.0       0.5103477889778089  0.09166459431372724           0.6818841195273533 1.0000   
         H         H         1.0       0.5233335185248076  0.07302429443563181           0.6543745427180111 1.0000   
         H         H         1.0       0.5703891786813546  0.1536482928222368  0.6297831926518794 1.0000   
         H         H         1.0       0.5671339564571569  0.17149477546174924           0.6612765055190497 1.0000   
         H         H         1.0       0.516994975513979   0.14761613178743296           0.7354020850198574 1.0000   
         H         H         1.0       0.9694777816020593  0.13744166148278006           0.7541206426803827 1.0000   
         H         H         1.0       0.9416234385888895  0.08859495790285755           0.7012781810680435 1.0000   
         H         H         1.0       0.9860748842846326  0.11379876403243169           0.6864578400837925 1.0000   
         H         H         1.0       0.9556129126206213  0.0776693845346736  0.8001871889076887 1.0000   
         H         H         1.0       0.9422630381368783  0.1036241817958719  0.7800210865976308 1.0000   
         H         H         1.0       0.9225446797207105  0.0470271034032938  0.7313121795039417 1.0000   
         H         H         1.0       0.9382462916288671  0.021106719659223984         0.752975513735423  1.0000   
         H         H         1.0       0.90865399654532    0.10514836077483738           0.6993570836079863 1.0000   
         H         H         1.0       0.8670989966467991  0.0818835181157345  0.6832453300038996 1.0000   
         H         H         1.0       0.831135386433286   0.02678658095250476           0.732153300295741  1.0000   
         H         H         1.0       0.8727920201864328  0.04786934142766941           0.749328409956418  1.0000   
         H         H         1.0       0.8930154597174135  0.09230754685337315           0.77178070756958   1.0000   
         H         H         1.0       0.880920740373822   0.12628501436817194           0.7856862756385915 1.0000   
         H         H         1.0       0.9300167597624325  0.1831457325326067  0.7426682420934745 1.0000   
         H         H         1.0       0.9389660435461037  0.14733350004132828           0.7255362566884617 1.0000   
         C         C         1.0       0.5446818460173345  0.25342388654194264           0.5111721111330944 1.0000   
         C         C         1.0       0.5278940865246732  0.2566466911736643  0.52417759697846   1.0000   
         C         C         1.0       0.523020017980974   0.27860275715545935           0.5208470953106955 1.0000   
         C         C         1.0       0.5379901903624095  0.299643386497027   0.50683587772485   1.0000   
         C         C         1.0       0.5526804169241786  0.293623421592744   0.49333269993108547          1.0000   
         C         C         1.0       0.5566889577285707  0.2722264972600282  0.49537000527790476          1.0000   
         H         H         1.0       0.5205107729779547  0.24334101746562928           0.5372296454770785 1.0000   
         H         H         1.0       0.5090314998235216  0.28146283014937284           0.5299113430645696 1.0000   
         H         H         1.0       0.5581908420610496  0.305334105554274   0.4793551412872186 1.0000   
         H         H         1.0       0.5684003610567316  0.2691993567474904  0.4833455737164467 1.0000   
         C         C         1.0       0.5775590136518554  0.3579955030181583  0.4891874881278612 1.0000   
         C         C         1.0       0.5489088137463001  0.3464108013600246  0.4877957896914325 1.0000   
         C         C         1.0       0.5395332477520252  0.35781014240785247           0.4739436240142011 1.0000   
         C         C         1.0       0.5561738378662329  0.37679784938676375           0.4598538666585541 1.0000   
         C         C         1.0       0.5834014225483739  0.38467478967399    0.4594728290919102 1.0000   
         C         C         1.0       0.5946318247205215  0.37648514718541715           0.4744052818311976 1.0000   
         C         C         1.0       0.5297226212196262  0.32366316933695183           0.5040662347092972 1.0000   
         C         C         1.0       0.5325850941150237  0.34091469345130554           0.5244125742989313 1.0000   
         C         C         1.0       0.5222821925303882  0.35926696730614227           0.5238563641838305 1.0000   
         C         C         1.0       0.5277257725124768  0.37762810995706575           0.5397034826727866 1.0000   
         C         C         1.0       0.537805008295584   0.37457655018282093           0.5573264137281718 1.0000   
         C         C         1.0       0.5483323190355535  0.35668151734102826           0.5578096655998616 1.0000   
         C         C         1.0       0.5464425920364023  0.3408474894540981  0.5414165101114775 1.0000   
         C         C         1.0       0.49280029400313174           0.2910854921010468 0.4773861183771376 1.0000   
         C         C         1.0       0.9715854498216692  0.27234745588206244           0.4573659634839716 1.0000   
         C         C         1.0       0.9490991275976047  0.27361443283439385           0.46406179267490766          1.0000   
         C         C         1.0       0.9527439495945952  0.2871577466976811  0.482573267001124  1.0000   
         C         C         1.0       0.9763356092852463  0.2973780997030971  0.4934143046260146 1.0000   
         C         C         1.0       0.49822741911274515           0.3048538563043261 0.4950909888932077 1.0000   
         C         C         1.0       0.9209091691707647  0.26246498774312266           0.45037833040069414          1.0000   
         C         C         1.0       0.9480246287271163  0.3392782544323978  0.4180195591459426 1.0000   
         C         C         1.0       0.950399061348095   0.3188875294404709  0.40938179249850004          1.0000   
         C         C         1.0       0.9418866792228334  0.2942855956420413  0.4190977152302049 1.0000   
         C         C         1.0       0.9278776208188446  0.2891554953958146  0.4374493821996644 1.0000   
         C         C         1.0       0.9222562536771713  0.30902042318209394           0.444190928312742  1.0000   
         C         C         1.0       0.9338560261112826  0.3345330003132505  0.4359266210200132 1.0000   
         C         C         1.0       0.8932633174170866  0.25090893122725744           0.46172825569345977          1.0000   
         C         C         1.0       0.8906512746608705  0.23911978179116664           0.48066963304769017          1.0000   
         C         C         1.0       0.8681798064353753  0.2300111629651163  0.4915500137697749 1.0000   
         C         C         1.0       0.8449255990012366  0.22919761581437115           0.483188743566051  1.0000   
         C         C         1.0       0.8453507754767041  0.23774614965885724           0.4632024135711906 1.0000   
         C         C         1.0       0.8696834227197792  0.24967844232194042           0.45374402442540834          1.0000   
         C         C         1.0       0.8987857088907063  0.22895645120862299           0.41937326907372446          1.0000   
         C         C         1.0       0.8892686736165643  0.20440951974668825           0.4112908655385245 1.0000   
         C         C         1.0       0.8933646061968618  0.18462684554922798           0.42036063308180965          1.0000   
         C         C         1.0       0.9066838732548977  0.1895057778566787  0.4388535119849825 1.0000   
         C         C         1.0       0.9165757606033167  0.21474488170719463           0.4473793111410287 1.0000   
         C         C         1.0       0.9119555359713263  0.23439213942219844           0.4380928948219312 1.0000   
         H         H         1.0       0.5857410176743335  0.3498223376221932  0.49931235824957454          1.0000   
         H         H         1.0       0.5187839961838158  0.3520388135875278  0.4716541764746861 1.0000   
         H         H         1.0       0.5476337387863668  0.3821496762687281  0.44714492538193196          1.0000   
         H         H         1.0       0.6161001830473498  0.3829471860457127  0.4746628112599891 1.0000   
         H         H         1.0       0.5109414700863301  0.3603841597836288  0.5109978338215299 1.0000   
         H         H         1.0       0.520810358449019   0.39204582426532164           0.5379926021056717 1.0000   
         H         H         1.0       0.5545989274351247  0.3516670736240423  0.5714964436323035 1.0000   
         H         H         1.0       0.5526815888217091  0.3251464459756807  0.5420365907961543 1.0000   
         H         H         1.0       0.5095973628586288  0.29096719982975433           0.46971044789869704          1.0000   
         H         H         1.0       0.9688824415464928  0.261624535822492   0.44306533979488244          1.0000   
         H         H         1.0       0.9356397114352514  0.2873081513388874  0.4894104444988118 1.0000   
         H         H         1.0       0.9765224648160455  0.30541038243759566           0.5082491936692535 1.0000   
         H         H         1.0       0.9611720501825891  0.3235467521591469  0.39449368195729356          1.0000   
         H         H         1.0       0.946358005661679   0.27861333207608696           0.4146016192602085 1.0000   
         H         H         1.0       0.9124186424290893  0.30645508354019085           0.4593731207753051 1.0000   
         H         H         1.0       0.9301282408274287  0.3496520124140475  0.44303118928469165          1.0000   
         H         H         1.0       0.9076518828669157  0.23784683301824294           0.4874819401881397 1.0000   
         H         H         1.0       0.8703967852474714  0.22570698863299904           0.5067461421093401 1.0000   
         H         H         1.0       0.8278368040155414  0.2356697858865619  0.4557276999495834 1.0000   
         H         H         1.0       0.8703849215323961  0.25779568765360555           0.43879820754323645          1.0000   
         H         H         1.0       0.89293100672959    0.2433031039135904  0.4118234992809049 1.0000   
         H         H         1.0       0.8783853266769478  0.20033220413273053           0.3965206710949749 1.0000   
         H         H         1.0       0.9090173220584464  0.17369038621246444           0.44639906346273955          1.0000   
         H         H         1.0       0.9266354388044544  0.21846690795927354           0.4625160878889635 1.0000   
         C         C         1.0       0.745333935853271   0.43675854779190476           0.3623095382417672 1.0000   
         C         C         1.0       0.7223305000345089  0.4228332039984345  0.3724506805284883 1.0000   
         C         C         1.0       0.7073240397743026  0.4349209316964962  0.37735063919875717          1.0000   
         C         C         1.0       0.7160875398174622  0.4620880273815538  0.3722762017139366 1.0000   
         C         C         1.0       0.7412329674474176  0.4768371807441905  0.3627601931244101 1.0000   
         C         C         1.0       0.753730346513144   0.4627342900283756  0.3565622542567541 1.0000   
         H         H         1.0       0.7162218895368182  0.40160803647209414           0.3769868507970285 1.0000   
         H         H         1.0       0.6863844613441823  0.421988579866868   0.3808731177708221 1.0000   
         H         H         1.0       0.7492121766166397  0.4975199592534992  0.35760749028222216          1.0000   
         H         H         1.0       0.7729397130089593  0.473449045977826   0.34749780262014773          1.0000   
         C         C         1.0       0.6813001890239605  0.4507176007325761  0.4105004820573255 1.0000   
         C         C         1.0       0.6743481520629231  0.4618741401298566  0.39369109296761334          1.0000   
         C         C         1.0       0.65263748687988    0.46691161614710175           0.3962041179793141 1.0000   
         C         C         1.0       0.6373602368061067  0.4575155093253053  0.4139782919278002 1.0000   
         C         C         1.0       0.6421305313300931  0.4429899092552477  0.42839411535061306          1.0000   
         C         C         1.0       0.6647856071186646  0.4401692628866229  0.4274732886697834 1.0000   
         C         C         1.0       0.6957473277848876  0.47440750548922744           0.3752193048791714 1.0000   
         C         C         1.0       0.6805167611074951  0.46940040674331907           0.3538486458312714 1.0000   
         C         C         1.0       0.6908857972444689  0.487094957433433   0.33634529439676125          1.0000   
         C         C         1.0       0.6795601804004159  0.47961016150029345           0.3174457918899492 1.0000   
         C         C         1.0       0.6553622737219306  0.4548628917645153  0.3154177038508986 1.0000   
         C         C         1.0       0.64647608454255    0.4372404774694102  0.3321342322292012 1.0000   
         C         C         1.0       0.6582161270505726  0.44425490825155733           0.35013017107032285          1.0000   
         C         C         1.0       0.7310876537252561  0.013347398238625895         0.38526044992634917          1.0000   
         C         C         1.0       0.7416729082317759  0.03829556338971043           0.39396140700676546          1.0000   
         C         C         1.0       0.7367381172360137  0.05811449367539945           0.38530553579649346          1.0000   
         C         C         1.0       0.7173835584370919  0.0506975656398692  0.3697778345121754 1.0000   
         C         C         1.0       0.7047836867591818  0.02471171007884664           0.3622710952652911 1.0000   
         C         C         1.0       0.7116902614493953  0.005461075700992889         0.3690653261149802 1.0000   
         C         C         1.0       0.7512543078149797  0.0863229768473017  0.39751985948582796          1.0000   
         C         C         1.0       0.6910980248633292  0.0634752844077865  0.44583016496131517          1.0000   
         C         C         1.0       0.7149030635522842  0.06332079356493243           0.449552310792209  1.0000   
         C         C         1.0       0.7330056529380136  0.06959098554852276           0.43466979639775627          1.0000   
         C         C         1.0       0.7295633996152285  0.0785947561296572  0.415343339538142  1.0000   
         C         C         1.0       0.7055426167737762  0.07874728368275723           0.4114479863962149 1.0000   
         C         C         1.0       0.6858095158570765  0.07003225825604989           0.4266766779106724 1.0000   
         C         C         1.0       0.7555050013362584  0.11227639380548216           0.3845691340516927 1.0000   
         C         C         1.0       0.7620104771715472  0.11496596500579673           0.3645345047361323 1.0000   
         C         C         1.0       0.771236162713686   0.1390335334288262  0.35363764718493496          1.0000   
         C         C         1.0       0.7765452529082293  0.16257915100345813           0.36387114170206036          1.0000   
         C         C         1.0       0.7695184439531909  0.1605105102242437  0.38433538455509525          1.0000   
         C         C         1.0       0.7598188467476727  0.1363159279458615  0.3943342047567081 1.0000   
         C         C         1.0       0.7944514070444578  0.1138320154190289  0.4215956075264929 1.0000   
         C         C         1.0       0.8214413506033981  0.12369436718265231           0.42612902464324715          1.0000   
         C         C         1.0       0.8383697045972262  0.11910748158980751           0.41417718305612833          1.0000   
         C         C         1.0       0.8270157182386701  0.10336513610207598           0.3975076756621329 1.0000   
         C         C         1.0       0.8004085084472186  0.09417297601580003           0.39167722558949597          1.0000   
         C         C         1.0       0.782578273297837   0.09842974498233543           0.404290709973204  1.0000   
         H         H         1.0       0.7009172648959995  0.4519195259486111  0.41109496795764355          1.0000   
         H         H         1.0       0.6481697649738904  0.4784340982355014  0.38422596729050734          1.0000   
         H         H         1.0       0.6221940784285812  0.46327422406009355           0.417584257670415  1.0000   
         H         H         1.0       0.6710407524228013  0.4332493980275326  0.4405670393149721 1.0000   
         H         H         1.0       0.7096467163300547  0.5056871855846868  0.3386925329941353 1.0000   
         H         H         1.0       0.6889170514465125  0.49263113501040856           0.30404950120208435          1.0000   
         H         H         1.0       0.626757134221863   0.41767941851567947           0.3310915235334487 1.0000   
         H         H         1.0       0.6489179945422315  0.43009098480088365           0.36237980091054706          1.0000   
         H         H         1.0       0.7392819220378707  0.4989319520733155  0.40132925346259213          1.0000   
         H         H         1.0       0.7549138569647885  0.0437231217858798  0.40724209169110415          1.0000   
         H         H         1.0       0.7111392484042318  0.06453134173540832           0.36565179545319504          1.0000   
         H         H         1.0       0.6896092475218263  0.020235393976812902         0.3499225643690248 1.0000   
         H         H         1.0       0.7189545374604115  0.0555154838227248  0.46358339114258135          1.0000   
         H         H         1.0       0.7506444397623981  0.0681966226875631  0.43873691323974434          1.0000   
         H         H         1.0       0.7012875078351569  0.08414079481458552           0.3967781481398508 1.0000   
         H         H         1.0       0.6659608261382246  0.06811434220508837           0.42336001048528027          1.0000   
         H         H         1.0       0.7579908685892461  0.09819750784400959           0.35548385825134876          1.0000   
         H         H         1.0       0.7732981463861309  0.13853419191076058           0.33761768663789254          1.0000   
         H         H         1.0       0.7754328406109382  0.17907872250258652           0.39258110159493226          1.0000   
         H         H         1.0       0.758871707321303   0.13698261503721912           0.41037886912354404          1.0000   
         H         H         1.0       0.7803525935019024  0.11817829514087194           0.4298405438116708 1.0000   
         H         H         1.0       0.8291730815731242  0.13365989602883369           0.44052493567893275          1.0000   
         H         H         1.0       0.8418534064856511  0.10087026190421343           0.38763167131519066          1.0000   
         H         H         1.0       0.7953788201969387  0.08325653121477164           0.3765437040449462 1.0000   
         C         C         1.0       0.77275653741246    0.4903417870504855  0.6928185659410491 1.0000   
         C         C         1.0       0.7492743659517391  0.4729381124422674  0.7031744146672891 1.0000   
         C         C         1.0       0.7245326934802916  0.46867396731231953           0.6956284521981759 1.0000   
         C         C         1.0       0.7228506616950091  0.4823557271973475  0.6788121832222349 1.0000   
         C         C         1.0       0.7468602062811223  0.49857049005494275           0.6678852248113881 1.0000   
         C         C         1.0       0.7714848605954325  0.501208697815835   0.6743543876056493 1.0000   
         H         H         1.0       0.7499568275024524  0.46148804954788897           0.716424559580015  1.0000   
         H         H         1.0       0.7068425545389277  0.45506842269598013           0.7045528697796505 1.0000   
         H         H         1.0       0.7474481340813687  0.014372687967873604         0.6440998855139514 1.0000   
         H         H         1.0       0.789759511362272   0.015385828653198593         0.6505827297623983 1.0000   
         C         C         1.0       0.7248167908661944  0.04080187796597773           0.6557371421605186 1.0000   
         C         C         1.0       0.7032400690437612  0.014399768140543563         0.6530103897509023 1.0000   
         C         C         1.0       0.6830891508908334  0.011019554132021514         0.6391115272726253 1.0000   
         C         C         1.0       0.6867305258728907  0.032093908706501854         0.6266135591639547 1.0000   
         C         C         1.0       0.7099049987226996  0.05747918053245395           0.6284769084020433 1.0000   
         C         C         1.0       0.7301159330074134  0.061371799911080605         0.6420657227239484 1.0000   
         C         C         1.0       0.6937266091386215  0.48052105514125826           0.6713858210036601 1.0000   
         C         C         1.0       0.6786735715252814  0.48357476673488176           0.6912352296822624 1.0000   
         C         C         1.0       0.6511870862786765  0.473075571349801   0.6905461309527788 1.0000   
         C         C         1.0       0.6376487106974782  0.47575621018784325           0.7061132519474888 1.0000   
         C         C         1.0       0.6640490517859062  0.007963647910977416         0.7184837609680906 1.0000   
         C         C         1.0       0.6917401283778585  0.01594541849898445           0.7194274547040233 1.0000   
         C         C         1.0       0.7028444437849745  0.009071692926320714         0.7038037488089216 1.0000   
         C         C         1.0       0.6873475852739905  0.45027081257880364           0.6408679399505152 1.0000   
         C         C         1.0       0.6747716435696168  0.4257954754100473  0.6304945990243737 1.0000   
         C         C         1.0       0.6532972307551795  0.4027428514392675  0.6390328429604134 1.0000   
         C         C         1.0       0.6449210948920485  0.40452221057648863           0.6587516414958522 1.0000   
         C         C         1.0       0.6591708236548071  0.4289570997859358  0.6685836614602003 1.0000   
         C         C         1.0       0.6790107776018597  0.45252161599405816           0.6596774608706372 1.0000   
         C         C         1.0       0.6361465721258909  0.3765689152447721  0.6252922418401294 1.0000   
         C         C         1.0       0.5867097618996584  0.40606748205970405           0.5942083583929572 1.0000   
         C         C         1.0       0.6080587130202076  0.4068671132427502  0.5847323251817922 1.0000   
         C         C         1.0       0.6249714726134488  0.3996512112360604  0.5946819053834135 1.0000   
         C         C         1.0       0.6182484413762506  0.3875815710840748  0.613876642325222  1.0000   
         C         C         1.0       0.5979930180365065  0.38921953281285104           0.6241707328830415 1.0000   
         C         C         1.0       0.5833409537588045  0.3998086145335609  0.6146022485076043 1.0000   
         C         C         1.0       0.6183950817944499  0.3486237780611034  0.6367722841679254 1.0000   
         C         C         1.0       0.6297642044403006  0.3418999309837968  0.6529178507915452 1.0000   
         C         C         1.0       0.6172609460765682  0.315658412675416   0.6599165157427433 1.0000   
         C         C         1.0       0.5922401536607967  0.29549250129650617           0.6518693580474034 1.0000   
         C         C         1.0       0.5800028710567549  0.3032852645443523  0.6374149926104692 1.0000   
         C         C         1.0       0.5924750689272915  0.3290097269054992  0.6294041340987062 1.0000   
         C         C         1.0       0.6436968314333344  0.3547053551803146  0.5932463631213482 1.0000   
         C         C         1.0       0.6574062038729063  0.34504869502791546           0.5824980351901958 1.0000   
         C         C         1.0       0.6808743896614206  0.3474496451874808  0.5903684713900959 1.0000   
         C         C         1.0       0.6930129430818803  0.3634923459442322  0.6075155698163495 1.0000   
         C         C         1.0       0.6784864782482135  0.3734592806759839  0.6178011040900661 1.0000   
         C         C         1.0       0.6543697169842804  0.37002961305595256           0.6106798917128414 1.0000   
         H         H         1.0       0.7387032756387286  0.04365413377026955           0.6685204660544602 1.0000   
         H         H         1.0       0.6598985428510675  0.4776142418323237  0.6398823391139289 1.0000   
         H         H         1.0       0.6685093722202498  0.02747407781529919           0.616720669551709  1.0000   
         H         H         1.0       0.7473371948200085  0.08057381679603536           0.6428581871849007 1.0000   
         H         H         1.0       0.6392199328809122  0.46133184615253864           0.6769991847106199 1.0000   
         H         H         1.0       0.6155617057059871  0.4692077390001802  0.7039596287473918 1.0000   
         H         H         1.0       0.7023387373532569  0.022707515102425208         0.7348965763398047 1.0000   
         H         H         1.0       0.7235699129136689  0.0145360541048338  0.7039154188741235 1.0000   
         H         H         1.0       0.70494166625542    0.46850848674575857           0.6338419614448009 1.0000   
         H         H         1.0       0.6831232327423753  0.42753885662229524           0.6156816914876112 1.0000   
         H         H         1.0       0.6274427629230296  0.3883621598082633  0.6667787500516243 1.0000   
         H         H         1.0       0.6526830575456996  0.4278495365134614  0.6844620193589878 1.0000   
         H         H         1.0       0.6101297545561015  0.41337215692176543           0.5686394416796877 1.0000   
         H         H         1.0       0.6431408759586377  0.40116583717666954           0.5867106527878743 1.0000   
         H         H         1.0       0.594480675760389   0.38065809628813374           0.6397486874200324 1.0000   
         H         H         1.0       0.5681969325265397  0.3993943171728261  0.6238958349921235 1.0000   
         H         H         1.0       0.6499628730921778  0.3569380337941271  0.6582788014197065 1.0000   
         H         H         1.0       0.6282630603016804  0.31271394777759554           0.6729417525047909 1.0000   
         H         H         1.0       0.5603001234837599  0.2876923651210048  0.630194850741361  1.0000   
         H         H         1.0       0.583578968364802   0.3332036453026865  0.6160577829663996 1.0000   
         H         H         1.0       0.6225737399029566  0.3486803973888502  0.5894169967538812 1.0000   
         H         H         1.0       0.64615031769197    0.3308596728986575  0.5701481491060231 1.0000   
         H         H         1.0       0.7127382321976471  0.3680232236712534  0.6123768980191523 1.0000   
         H         H         1.0       0.6879477263794105  0.3861603105976757  0.6313048140439405 1.0000   
         C         C         1.0       0.7839988022899749  0.22268873592662256           0.5121620320584038 1.0000   
         C         C         1.0       0.7602463116923666  0.2122284905105501  0.5006652416013216 1.0000   
         C         C         1.0       0.7372035607281079  0.1911416626939962  0.5082394813707015 1.0000   
         C         C         1.0       0.7370315743635352  0.1792602425091414  0.5268229755753012 1.0000   
         C         C         1.0       0.7610043364816178  0.19114570418405116           0.5384063334090089 1.0000   
         C         C         1.0       0.7834977894822563  0.21487661182476747           0.5321605872072266 1.0000   
         H         H         1.0       0.7577607133124559  0.2160911644352453  0.4846900889557393 1.0000   
         H         H         1.0       0.7194099033795129  0.18277528840381158           0.4982916210923281 1.0000   
         H         H         1.0       0.7605689757783765  0.18235498340084813           0.5529792175280042 1.0000   
         H         H         1.0       0.8030756703607629  0.2244453455733512  0.5410967489762418 1.0000   
         C         C         1.0       0.7317922031655713  0.12607110623953002           0.5491408711714653 1.0000   
         C         C         1.0       0.7118486609185778  0.13309427140789726           0.5516683275145412 1.0000   
         C         C         1.0       0.6929007191740176  0.12134266624565145           0.5663225999960863 1.0000   
         C         C         1.0       0.6922510805613743  0.1026194426324464  0.5790468386472593 1.0000   
         C         C         1.0       0.711365391447747   0.09386243323739006           0.5771688264430099 1.0000   
         C         C         1.0       0.732070917384408   0.10720937507336381           0.5627691292179657 1.0000   
         C         C         1.0       0.710062788440747   0.15324540709812193           0.535384185025127  1.0000   
         C         C         1.0       0.6960986347915243  0.13157941393093925           0.5174303802658153 1.0000   
         C         C         1.0       0.667568788027776   0.11214014484286638           0.5177771692341687 1.0000   
         C         C         1.0       0.6546925897897481  0.09319914765568021           0.5020239092464245 1.0000   
         C         C         1.0       0.6698278861612719  0.09190721347937182           0.48676656644426697          1.0000   
         C         C         1.0       0.6984681946962082  0.10932645237960173           0.48707028266565405          1.0000   
         C         C         1.0       0.7106466284819524  0.1275360334756397  0.5014997871277276 1.0000   
         C         C         1.0       0.7001702023834696  0.18300316145532455           0.5607761530101745 1.0000   
         C         C         1.0       0.6849348845223614  0.19440530216659496           0.5678112286717356 1.0000   
         C         C         1.0       0.6630124903711931  0.19216853979745593           0.5570853227933558 1.0000   
         C         C         1.0       0.6582433544557962  0.18009964007805382           0.5380599852343287 1.0000   
         C         C         1.0       0.6745444709206961  0.16927485164076364           0.5308128906561296 1.0000   
         C         C         1.0       0.6931095537979423  0.16742771832445205           0.5429280414435144 1.0000   
         C         C         1.0       0.6438385660243359  0.20283555204473872           0.56733097199257   1.0000   
         C         C         1.0       0.5981313036149882  0.13038583738837484           0.6049183382086899 1.0000   
         C         C         1.0       0.619162423280632   0.15294081787435226           0.6137689295525796 1.0000   
         C         C         1.0       0.6329287224553479  0.17600605938886668           0.602706910706674  1.0000   
         C         C         1.0       0.6269382094470388  0.17710061615285885           0.5825092036050733 1.0000   
         C         C         1.0       0.6043667969643023  0.1541169283067888  0.5740208708061363 1.0000   
         C         C         1.0       0.5909554582766481  0.13049281361710038           0.5852849002809125 1.0000   
         C         C         1.0       0.6264118331238397  0.21009662308942043           0.552092406703351  1.0000   
         C         C         1.0       0.634848327812947   0.22384236331060414           0.5337970324879873 1.0000   
         C         C         1.0       0.6178269303574544  0.2310522051707872  0.5230218307381735 1.0000   
         C         C         1.0       0.5944290354719054  0.22819979923970946           0.530459795341744  1.0000   
         C         C         1.0       0.585649594322253   0.21420529047977369           0.5489459801301902 1.0000   
         C         C         1.0       0.6015107522714378  0.2054296920146196  0.5593943731145141 1.0000   
         C         C         1.0       0.6520712478940508  0.24003240450265984           0.5946166795866362 1.0000   
         C         C         1.0       0.665438987710847   0.26651295581009016           0.6016843697667807 1.0000   
         C         C         1.0       0.6904815470948499  0.2861677620178967  0.5920841585545117 1.0000   
         C         C         1.0       0.7023846307241196  0.2776587885584824  0.5767952203865409 1.0000   
         C         C         1.0       0.6871901929880795  0.25070065538373937           0.5709186074175002 1.0000   
         C         C         1.0       0.6617360283275499  0.23122957608163786           0.5792218592412672 1.0000   
         H         H         1.0       0.7486154253610695  0.13734500851045245           0.538468160401447  1.0000   
         H         H         1.0       0.6770706149451269  0.12579122934857562           0.56657964359254   1.0000   
         H         H         1.0       0.6781874887246943  0.09412175439493065           0.5910056382558154 1.0000   
         H         H         1.0       0.7485892578325045  0.1036614621366717  0.5630475568015023 1.0000   
         H         H         1.0       0.6560567212695039  0.113496422841244   0.5303042687664653 1.0000   
         H         H         1.0       0.6327815399920632  0.07999585409451168           0.503338697709983  1.0000   
         H         H         1.0       0.7082781698085425  0.10937283626651721           0.4731979581651915 1.0000   
         H         H         1.0       0.7323822003073731  0.14138583739126256           0.4997095985782041 1.0000   
         H         H         1.0       0.717417771411996   0.18423912848772087           0.5699726833765075 1.0000   
         H         H         1.0       0.6904338294080753  0.20517465059309403           0.5827170597640551 1.0000   
         H         H         1.0       0.6418807885657754  0.1773463390286449  0.5285148206919509 1.0000   
         H         H         1.0       0.6691279683602464  0.15989500251683986           0.5167856252411325 1.0000   
         H         H         1.0       0.6256248179811447  0.1517216742340753  0.6292484697311481 1.0000   
         H         H         1.0       0.649989672217449   0.19493910337422782           0.6093737518257712 1.0000   
         H         H         1.0       0.6001334642280647  0.15146823506278803           0.5577527958924328 1.0000   
         H         H         1.0       0.5722559990210757  0.1126688120058155  0.5790957312205238 1.0000   
         H         H         1.0       0.6538131756102947  0.22694117110136863           0.5273075181037452 1.0000   
         H         H         1.0       0.6261633845708896  0.24249037265717538           0.5091837016619806 1.0000   
         H         H         1.0       0.5686495974786652  0.2128336307561985  0.5571704225704973 1.0000   
         H         H         1.0       0.5942153510177408  0.19682557784203095           0.5742203545530232 1.0000   
         H         H         1.0       0.631851195816164   0.22547788273923436           0.600616365315048  1.0000   
         H         H         1.0       0.655519318995288   0.2701822895458736  0.6151439370613742 1.0000   
         H         H         1.0       0.7209028311073271  0.2925173719263402  0.5692209836570433 1.0000   
         H         H         1.0       0.6951428878601105  0.24769931815508175           0.5565047635264736 1.0000   
         C         C         1.0       0.7121791062651821  0.08089527488727612           0.6159962613606358 1.0000   
         C         C         1.0       0.7106540894808075  0.07344576589318264           0.5928772743454663 1.0000   
         H         H         1.0       0.6946777769188957  0.08349675694354614           0.6194097733188793 1.0000   
         H         H         1.0       0.7309137226352498  0.09992645080710948           0.6173803912339535 1.0000   
         H         H         1.0       0.691662810918953   0.05498971733017435           0.5902397038758298 1.0000   
         H         H         1.0       0.7260984663179271  0.06900267248051269           0.5888372662258005 1.0000   
         C         C         1.0       0.7011987564363691  0.31503376889752005           0.5968541376017344 1.0000   
         C         C         1.0       0.6929087868047353  0.3305538009277369  0.5817616681462255 1.0000   
         H         H         1.0       0.6970009401802362  0.3185705870024626  0.6121700401846993 1.0000   
         H         H         1.0       0.7230648993591273  0.3215225439614484  0.5956720163924046 1.0000   
         H         H         1.0       0.6764073098717392  0.3157140969697058  0.5718261978270065 1.0000   
         H         H         1.0       0.7098212165712888  0.3446753313805127  0.5721287116768278 1.0000   
         C         C         1.0       0.669663278549378   0.053896226901342555         0.46232845228290714          1.0000   
         C         C         1.0       0.6562843151539878  0.071547968077193   0.4682731101959278 1.0000   
         H         H         1.0       0.6792414985510415  0.05265475395975003           0.47617453640799845          1.0000   
         H         H         1.0       0.6523600995506955  0.03256584254877245           0.45830094372775476          1.0000   
         H         H         1.0       0.6351817193069019  0.05491245283891362           0.4724631737009161 1.0000   
         H         H         1.0       0.6534162374965844  0.08245687586314593           0.4544247313511414 1.0000   
         C         C         1.0       0.5376157860630676  0.3903410914126614  0.5760704972585631 1.0000   
         C         C         1.0       0.5675226919186371  0.41404255858387445           0.581843861537258  1.0000   
         H         H         1.0       0.5254684734795722  0.4003509322359745  0.5728493330655678 1.0000   
         H         H         1.0       0.5282907688848368  0.3749379741285635  0.5884621552230986 1.0000   
         H         H         1.0       0.577649511947991   0.4230639773158691  0.5674986250777531 1.0000   
         H         H         1.0       0.5664111447733658  0.4312786879204868  0.5893565387256507 1.0000   
         C         C         1.0       0.6027244260398879  0.4034197341529998  0.442846403758599  1.0000   
         C         C         1.0       0.6231365968359229  0.4321570753543738  0.4475411534187464 1.0000   
         H         H         1.0       0.6141890340666847  0.39418123478414796           0.4361583284709382 1.0000   
         H         H         1.0       0.5909412042354084  0.40530008935936396           0.43043337923136393          1.0000   
         H         H         1.0       0.6109981905735253  0.4426876007301919  0.45051096289137915          1.0000   
         H         H         1.0       0.6346364187281168  0.434003712775168   0.4606421226754092 1.0000   
         C         C         1.0       0.8880689249312096  0.1589279873532057  0.4082608371675323 1.0000   
         C         C         1.0       0.8687415331809945  0.13093339285364014           0.41888444026625404          1.0000   
         H         H         1.0       0.8757037202831287  0.15719676221442413           0.3933671711627707 1.0000   
         H         H         1.0       0.9071375139698251  0.15961204810456303           0.40382503473639686          1.0000   
         H         H         1.0       0.8713234063951827  0.13180357599556694           0.43575901916872883          1.0000   
         H         H         1.0       0.8749839181993608  0.11681069033618667           0.41541310405463977          1.0000   
         C         C         1.0       0.5553435481163194  0.2331168627747164  0.5146069267915757 1.0000   
         C         C         1.0       0.5844964868996143  0.24794892950431577           0.5232602141486309 1.0000   
         H         H         1.0       0.5574668610629792  0.2259735806065376  0.5000648584578533 1.0000   
         H         H         1.0       0.5419430394453233  0.21491786563941948           0.5226699195137141 1.0000   
         H         H         1.0       0.5863522674408869  0.26163354028473473           0.5365089192544515 1.0000   
         H         H         1.0       0.5990578474947024  0.2611750455280059  0.5112853825134099 1.0000   
         C         C         1.0       0.8119302539072214  0.23755079620560696           0.5014017125076641 1.0000   
         C         C         1.0       0.8179084872610864  0.21482898779226892           0.49464689326866085          1.0000   
         H         H         1.0       0.828075828142562   0.2512891274186437  0.5130439801858985 1.0000   
         H         H         1.0       0.8099752460841549  0.2503890734771309  0.4893341952338651 1.0000   
         H         H         1.0       0.8023159264591783  0.19826848081559925           0.48463227711942053          1.0000   
         H         H         1.0       0.8202800315277     0.20448719239237853           0.5085306956371732 1.0000   
         C         C         1.0       0.5537204940224157  0.09665337274127982           0.6224529732050208 1.0000   
         C         C         1.0       0.5841951239560106  0.10551348151961314           0.6176715537809672 1.0000   
         H         H         1.0       0.5437642329460041  0.07451923927335646           0.6250508869295001 1.0000   
         H         H         1.0       0.5450452413245951  0.1003221633339025  0.6091514420513445 1.0000   
         H         H         1.0       0.5834547246051095  0.0876241834913809  0.6097594672511292 1.0000   
         H         H         1.0       0.5945598562348646  0.10725928484695924           0.6320676986205862 1.0000   
         C         C         1.0       0.5580527226356266  0.2577651546918596  0.6745574448765405 1.0000   
         C         C         1.0       0.5817256160933358  0.2668857046417412  0.6585307282281627 1.0000   
         H         H         1.0       0.5423508283086573  0.26061856751296614           0.6673616580440919 1.0000   
         H         H         1.0       0.5647039594616304  0.2717179993922364  0.6880387426119291 1.0000   
         H         H         1.0       0.574600311295025   0.25307025620672513           0.6453000105385897 1.0000   
         H         H         1.0       0.5993866161095827  0.2652997821452637  0.6658342686960157 1.0000   
         C         C         1.0       0.8193236535676724  0.038160725629342224         0.6942874931886241 1.0000   
         C         C         1.0       0.8087097933068811  0.008368419340482698         0.6875547674377028 1.0000   
         H         H         1.0       0.8050271215882157  0.038396760473256485         0.705155368088678  1.0000   
         H         H         1.0       0.8200739060693905  0.05166475612181568           0.6821751283260341 1.0000   
         H         H         1.0       0.8218812964894865  0.006760821705275748         0.6767512875258482 1.0000   
         H         H         1.0       0.80144877233017    0.4825383653703912  0.7093064195471231 1.0000   
         C         C         1.0       0.6501387585664599  0.013420955523216637         0.736009060749608  1.0000   
         C         C         1.0       0.6606548670046759  0.043979838955439464         0.7427618372029047 1.0000   
         H         H         1.0       0.6282291616876823  0.004738628712155125         0.7322363835354609 1.0000   
         H         H         1.0       0.6498978927796868  0.000319748519838835         0.7485222282616687 1.0000   
         H         H         1.0       0.6602413756612475  0.054659516465824745         0.7284350663793367 1.0000   
         H         H         1.0       0.6430167868484158  0.04315165942173283           0.7511237795566496 1.0000   
         C         C         1.0       0.6140680642373574  0.1384676314632847  0.7460585074736225 1.0000   
         C         C         1.0       0.6097386270966546  0.14406390877712294           0.7688675583408225 1.0000   
         H         H         1.0       0.6138201441200866  0.11859399025828503           0.7453105621518022 1.0000   
         H         H         1.0       0.6349229803384906  0.15424949604531984           0.740441604030191  1.0000   
         H         H         1.0       0.607649248808895   0.16229955314755626           0.7710568984532745 1.0000   
         H         H         1.0       0.5906123647827725  0.12592227450441884           0.7736867720621456 1.0000   
         C         C         1.0       0.8967895660645647  0.17778048168054683           0.7710481652218322 1.0000   
         C         C         1.0       0.8726234773354208  0.17672533684495575           0.7590748986970318 1.0000   
         H         H         1.0       0.8931056740430905  0.17675928433996307           0.7872010429368953 1.0000   
         H         H         1.0       0.9160346851414072  0.19697856375110628           0.7684538583183185 1.0000   
         H         H         1.0       0.8723935635101447  0.17125328381738875           0.7418257126315718 1.0000   
         H         H         1.0       0.8755357336980764  0.19652018209832245           0.7592370868228049 1.0000   
         C         C         1.0       0.8726878412075718  0.3910423747606987  0.0807859631506118 1.0000   
         C         C         1.0       0.8757513431483016  0.4181127361245054  0.07352627072384335          1.0000   
         H         H         1.0       0.8517907931727785  0.37809933975666277           0.08792310524480111          1.0000   
         H         H         1.0       0.8872809711684526  0.394229590874335   0.09357710723036472          1.0000   
         H         H         1.0       0.8963769823221159  0.4320133248974899  0.06482011960333343          1.0000   
         H         H         1.0       0.8598595430065787  0.4139874894625057  0.0627990971944629 1.0000   
         C         C         1.0       0.8386475068215296  0.14815096984734685           0.09630162148963635          1.0000   
         C         C         1.0       0.8345865758225143  0.12133530178242698           0.08540635487393852          1.0000   
         H         H         1.0       0.8426774881916339  0.1469199931963467  0.1126923235263307 1.0000   
         H         H         1.0       0.8189497970313915  0.1469791226342906  0.09790029059909443          1.0000   
         H         H         1.0       0.8386462982673555  0.1259738686757141  0.06891903012667448          1.0000   
         H         H         1.0       0.8128028737601559  0.10711822155881616           0.08780238402066451          1.0000   
         C         C         1.0       0.5083866587492168  0.33904924559641425           0.13887299237593045          1.0000   
         C         C         1.0       0.992074462850553   0.34265860517404095           0.13288854271869882          1.0000   
         H         H         1.0       0.5197351577135706  0.361088042158242   0.13950866714561969          1.0000   
         H         H         1.0       0.5119150901366588  0.33333508324361183           0.12373981398820445          1.0000   
         H         H         1.0       0.992706213469728   0.36174973630627966           0.12749237932097635          1.0000   
         H         H         1.0       0.9823273439540541  0.33883757510736867           0.1479290091539496 1.0000   
         C         C         1.0       0.4900026958439988  0.17693123385808    0.18228090910919104          1.0000   
         C         C         1.0       0.9629231121510852  0.1643771084447123  0.18432493168997094          1.0000   
         H         H         1.0       0.5024280605191515  0.1721764760846329  0.1719885915178296 1.0000   
         H         H         1.0       0.4835357817367827  0.16085427143952616           0.19474797031773963          1.0000   
         H         H         1.0       0.9652102732246851  0.1832381705668333  0.1764266187392884 1.0000   
         H         H         1.0       0.94917113243494    0.1587962510469373  0.19748473923374987          1.0000   
         C         C         1.0       0.7439123299327315  0.39064491328532974           0.19654831960530433          1.0000   
         C         C         1.0       0.7420006274987833  0.40385851257094524           0.177000171289181  1.0000   
         H         H         1.0       0.7610213235690084  0.4093136261100078  0.20437384900697186          1.0000   
         H         H         1.0       0.7497945120218025  0.37396791226524706           0.19321990016905918          1.0000   
         H         H         1.0       0.7249472479688835  0.38697048407272217           0.1681567488805699 1.0000   
         H         H         1.0       0.7351817873655148  0.4184105983350476  0.18145513152789988          1.0000   
         C         C         1.0       0.638950570379717   0.44703310935062884           0.2949756893160308 1.0000   
         C         C         1.0       0.6194044827649436  0.41564961142886125           0.29086451776325933          1.0000   
         H         H         1.0       0.6534595817936174  0.4559255517466962  0.281651903876962  1.0000   
         H         H         1.0       0.6266012881308278  0.456952088449793   0.29576421202992836          1.0000   
         H         H         1.0       0.6037472983464415  0.4134362255421226  0.2800100134330669 1.0000   
         H         H         1.0       0.6065904726786322  0.4049621247044272  0.3048727456536096 1.0000   
         C         C         1.0       0.9395605751383792  0.37437262843717206           0.398755474939222  1.0000   
         C         C         1.0       0.9592722052743377  0.36638532727898443           0.40830342918549883          1.0000   
         H         H         1.0       0.9247426265935559  0.3728258325471059  0.41051819709339127          1.0000   
         H         H         1.0       0.9532098649779639  0.39642022457678927           0.39637358855655763          1.0000   
         H         H         1.0       0.9689126356806927  0.3835724748309551  0.41950228009940654          1.0000   
         H         H         1.0       0.9762576698324933  0.37154534075973317           0.3977903329670973 1.0000   
         C         C         1.0       0.9038902767772206  0.45261950313306787           0.22209377762385715          1.0000   
         C         C         1.0       0.8968842945502662  0.425481535687673   0.23149553427919284          1.0000   
         H         H         1.0       0.902484989859718   0.46447555251655503           0.2334982651351718 1.0000   
         H         H         1.0       0.925631427423337   0.4617878327449224  0.218410571483922  1.0000   
         H         H         1.0       0.9136505442352546  0.42818578514991257           0.2417172954784153 1.0000   
         H         H         1.0       0.8962614905333026  0.4099523929502037  0.2207425203245272 1.0000   
         C         C         1.0       0.9514489255003129  0.3095333343224257  0.26871139708843766          1.0000   
         C         C         1.0       0.971130211532572   0.2991404157742296  0.2734051461103471 1.0000   
         H         H         1.0       0.9363795695767934  0.29475237950547983           0.25828435876325373          1.0000   
         H         H         1.0       0.9620651340280807  0.3270330671465203  0.25900195333703613          1.0000   
         H         H         1.0       0.9847929602852735  0.3127695467633366  0.2852036069732884 1.0000   
         H         H         1.0       0.9602926789679288  0.27964500883206866           0.28119483103287923          1.0000   
         C         C         1.0       0.7035203590418208  0.26964353580103323           0.2610469742965432 1.0000   
         C         C         1.0       0.6810945729311593  0.2656222032554129  0.2764971795305309 1.0000   
         H         H         1.0       0.697222628455706   0.26886824951260146           0.24546845010305016          1.0000   
         H         H         1.0       0.7048312450390033  0.2500350497384273  0.26330000659423497          1.0000   
         H         H         1.0       0.6681307817149394  0.2429608144326898  0.2760985428208422 1.0000   
         H         H         1.0       0.6895926661440758  0.26901822795160973           0.2922055647408018 1.0000   
         C         C         1.0       0.7801541232179253  0.2035024695575072  0.34324483836146286          1.0000   
         C         C         1.0       0.795148286869542   0.1904744639603969  0.35493774121905736          1.0000   
         H         H         1.0       0.7687539303371753  0.18940952575669717           0.3300366891138426 1.0000   
         H         H         1.0       0.7630548132160216  0.20416316166655393           0.35232517129538576          1.0000   
         H         H         1.0       0.809197666800677   0.2036514071936156  0.3674284361028838 1.0000   
         H         H         1.0       0.8084338946967898  0.18898919721733162           0.34415712696330947          1.0000   
         C         C         1.0       0.754799507062731   0.4152797770178627  0.3312894815083979 1.0000   
         C         C         1.0       0.7610858788163303  0.4232513426948664  0.35443152658080024          1.0000   
         H         H         1.0       0.7555088175621995  0.4325831538480893  0.3220724346369403 1.0000   
         H         H         1.0       0.734151229706058   0.3984784345262435  0.330229123379655  1.0000   
         H         H         1.0       0.7559570795517695  0.40551563895894405           0.3635719889038034 1.0000   
         H         H         1.0       0.7839477820063588  0.43549324466782585           0.3561045764915169 1.0000   
         C         C         1.0       0.9400658954683812  0.004907326223818431         0.7949515385006278 1.0000   
         C         C         1.0       0.9625238145833567  0.03446473484012247           0.789520865648676  1.0000   
         H         H         1.0       0.9619949841334893  0.5092977390510459  0.8192040512070883 1.0000   
         H         H         1.0       0.94028794100556    0.5076207532183414  0.8007868153769502 1.0000   
         H         H         1.0       0.9736122966739638  0.04731830311753093           0.8034811497670217 1.0000   
         H         H         1.0       0.977090139012972   0.031509710131687914         0.7800562673868838 1.0000   
         C         C         1.0       0.8043296180812057  0.04885848508826529           0.8387343237423974 1.0000   
         C         C         1.0       0.7860800974439351  0.01916313359593687           0.8476664003117002 1.0000   
         H         H         1.0       0.8210791369066286  0.049103159027048426         0.8288802448086794 1.0000   
         H         H         1.0       0.8164400968086181  0.0622924852402431  0.8518639401148175 1.0000   
         H         H         1.0       0.7768135682546216  0.02149202142995553           0.8621361390832468 1.0000   
         H         H         1.0       0.7570115073641897  0.4890223178276914  0.8407622054020892 1.0000   
         C         C         1.0       0.7578860015147454  0.28349339416781866           0.8541882684950827 1.0000   
         C         C         1.0       0.774849025317196   0.27197674480368594           0.8441942062539769 1.0000   
         H         H         1.0       0.7439713887999907  0.28477781012916553           0.8421048300364326 1.0000   
         H         H         1.0       0.7448079533491835  0.2696819775543919  0.8660243054568096 1.0000   
         H         H         1.0       0.7922984705938539  0.2755021873473186  0.8556390590128783 1.0000   
         H         H         1.0       0.7865893572986612  0.28414654276423684           0.8306257770995701 1.0000   
         C         C         1.0       0.909824776060211   0.36198760390753904           0.949344355417105  1.0000   
         C         C         1.0       0.9121389152352289  0.39041466237926475           0.9451781367447616 1.0000   
         H         H         1.0       0.9295731799737231  0.3628936526895272  0.9464432697170141 1.0000   
         H         H         1.0       0.8942418801887846  0.3483986743133292  0.9373912660359998 1.0000   
         H         H         1.0       0.9290476340245176  0.4020980764340802  0.9340092271689255 1.0000   
         H         H         1.0       0.9199810624902357  0.40288850843027857           0.9591080053159511 1.0000   
         C         C         1.0       0.9720149100627684  0.05598500501281789           0.06649858070245698          1.0000   
         C         C         1.0       0.49691579148003745           0.0678590568516705 0.05584393399853628          1.0000   
         H         H         1.0       0.9736206532994423  0.04104915424586617           0.0766814687423418 1.0000   
         H         H         1.0       0.9615306353452423  0.045495484647076444         0.05186337831203368          1.0000   
         H         H         1.0       0.5082183136068885  0.0804915690919194  0.07010434527012846          1.0000   
         H         H         1.0       0.5052271576514054  0.0542332669826834  0.052436979323996685         1.0000   
         C         C         1.0       0.6144333983074045  0.11501584707232093           0.9070665717729557 1.0000   
         C         C         1.0       0.6349943979883778  0.10578777814125231           0.898167090383422  1.0000   
         H         H         1.0       0.6031283173726688  0.09971421410788779           0.9181886715926875 1.0000   
         H         H         1.0       0.6006894735185407  0.11437621591572728           0.8946131571311232 1.0000   
         H         H         1.0       0.625024355036543   0.08433470069626481           0.8946713263693419 1.0000   
         H         H         1.0       0.6500244799063369  0.1093028236608502  0.9105269769722857 1.0000   
         C         C         1.0       0.9575663730334987  0.08258334578796916           0.9188640179379756 1.0000   
         C         C         1.0       0.9487194134350345  0.08406580993628503           0.9412903048599108 1.0000   
         H         H         1.0       0.9632479165529533  0.10280785558967617           0.9121233105849846 1.0000   
         H         H         1.0       0.9761205522747545  0.07964641837930725           0.91989564744797   1.0000   
         H         H         1.0       0.9378704753558019  0.06258749154024637           0.9478286422924702 1.0000   
         H         H         1.0       0.9310859889882761  0.08684081421308928           0.9402917724855956 1.0000   
         C         C         1.0       0.6787019043058332  0.31841209206216686           0.9271830818167962 1.0000   
         C         C         1.0       0.7008862605870496  0.34036564971246513           0.9416036035385572 1.0000   
         H         H         1.0       0.6866179022942126  0.318910213467367   0.9126203444719515 1.0000   
         H         H         1.0       0.6603221645049169  0.3211901787837671  0.9251685983932847 1.0000   
         H         H         1.0       0.6987909570743468  0.33213693253857424           0.9565779833965601 1.0000   
         H         H         1.0       0.6950865646300219  0.35688838052634325           0.9416858144380325 1.0000   
         C         C         1.0       0.5106134527837864  0.25072268394198766           0.0355347731517465 1.0000   
         C         C         1.0       0.5032343084496076  0.23760659294004927           0.014126579257952198         1.0000   
         H         H         1.0       0.5224680416645191  0.2458912401493715  0.04601185301384547          1.0000   
         H         H         1.0       0.5268998826797971  0.27199124303288646           0.03429970098149736          1.0000   
         H         H         1.0       0.5139506415372287  0.2550121162345716  0.0029898700191813327        1.0000   
         H         H         1.0       0.480670889113388   0.22671202318269823           0.011924082569121511         1.0000   
         C         C         1.0       0.736854733056458   0.24686209235940842           0.014554683099867948         1.0000   
         C         C         1.0       0.7481610168223357  0.2277038146599579  0.02124483949225204          1.0000   
         H         H         1.0       0.7358811783324166  0.25695050905749656           0.029050266152496517         1.0000   
         H         H         1.0       0.7536499652120894  0.2633686110877354  0.0050131827557605415        1.0000   
         H         H         1.0       0.7409383979343381  0.21094565050389621           0.010222679413239942         1.0000   
         H         H         1.0       0.7357131068095215  0.21783062843375353           0.03481438338613016          1.0000   
         C         C         1.0       0.5271362173870734  0.7381512394238828  0.015122520765128593         1.0000   
         C         C         1.0       0.5409939258148733  0.7289769705505913  0.02741254437573988          1.0000   
         C         C         1.0       0.5413017991956098  0.7053061087418844  0.02419045313366056          1.0000   
         C         C         1.0       0.526429954532793   0.688630237191343   0.007508931617571303         1.0000   
         C         C         1.0       0.5134871196636072  0.6987575625074726  0.9943543427736236 1.0000   
         C         C         1.0       0.5133322803753759  0.722978497123991   0.9987945129336968 1.0000   
         H         H         1.0       0.550294065823276   0.7392550885755116  0.04135075838904484          1.0000   
         H         H         1.0       0.5534125606493485  0.6992333889628628  0.032041918602090394         1.0000   
         H         H         1.0       0.5052278794378691  0.6905275739438296  0.9798441019063403 1.0000   
         H         H         1.0       0.5029118202406173  0.7296601740370733  0.9883116741928728 1.0000   
         C         C         1.0       0.9771667167646658  0.6366104000362722  0.9949244214993216 1.0000   
         C         C         1.0       0.5091251286907508  0.6437724348469417  0.9857588242376866 1.0000   
         C         C         1.0       0.5159806177441906  0.6299535458249512  0.9709096572065307 1.0000   
         C         C         1.0       0.9901050349696419  0.6104434793448078  0.966237655779159  1.0000   
         C         C         1.0       0.9625627759549227  0.60278564526331    0.9695765578945886 1.0000   
         C         C         1.0       0.9572865629446236  0.6162649907939355  0.9844460284731577 1.0000   
         C         C         1.0       0.532100011195666   0.6644057922964618  0.0014021856213995904        1.0000   
         C         C         1.0       0.5300030588240228  0.6455774665478905  0.01984564216151276          1.0000   
         C         C         1.0       0.5412706867338506  0.6290342927079482  0.01957327490860769          1.0000   
         C         C         1.0       0.5373444618087905  0.6097990047232296  0.03377487730460856          1.0000   
         C         C         1.0       0.5233758063120407  0.6087086244591893  0.05183310919189127          1.0000   
         C         C         1.0       0.5106279456531116  0.6243434920810333  0.05222519275489025          1.0000   
         C         C         1.0       0.5137678188894984  0.6416491785152537  0.036613464820202155         1.0000   
         C         C         1.0       0.5645367875677285  0.6945963281354349  0.9719052640873084 1.0000   
         C         C         1.0       0.5894637161938746  0.7077295620251354  0.9634301419796427 1.0000   
         C         C         1.0       0.6125202200950915  0.7097686163549629  0.9725760377092146 1.0000   
         C         C         1.0       0.6085935355239427  0.6995833095363686  0.9926892113545385 1.0000   
         C         C         1.0       0.5840080834993795  0.6866363900938691  0.0018212505803829337        1.0000   
         C         C         1.0       0.5612988867116655  0.6822170105918712  0.9912388012640897 1.0000   
         C         C         1.0       0.6393540865027718  0.7210621270660175  0.9591609494177638 1.0000   
         C         C         1.0       0.6165199680034371  0.6438872864087419  0.9273206340883099 1.0000   
         C         C         1.0       0.6183410059088651  0.6656760355790814  0.9161584431506431 1.0000   
         C         C         1.0       0.6256390116498891  0.6902766693305086  0.9254998082423888 1.0000   
         C         C         1.0       0.6331858898236409  0.6950801476581964  0.9464416254404318 1.0000   
         C         C         1.0       0.6326506595268675  0.6730828328875894  0.9566428320308055 1.0000   
         C         C         1.0       0.625561996344611   0.647952830321451   0.9472420354523332 1.0000   
         C         C         1.0       0.6671773558028287  0.7326391056982615  0.9715416469774834 1.0000   
         C         C         1.0       0.6720248199492397  0.7462157065518963  0.9900046088097633 1.0000   
         C         C         1.0       0.6972153048870519  0.7563875187036042  0.9995670444942235 1.0000   
         C         C         1.0       0.7172789523072366  0.7510870642897653  0.991301788254148  1.0000   
         C         C         1.0       0.7130549960005742  0.7400841133400997  0.9726502462680224 1.0000   
         C         C         1.0       0.6890201506876424  0.7310860799115297  0.962908017661777  1.0000   
         C         C         1.0       0.6608274420082169  0.7565891328299538  0.9296404455871184 1.0000   
         C         C         1.0       0.6698252839518252  0.7815428291178113  0.9209362396777553 1.0000   
         C         C         1.0       0.6657803161687574  0.8007581587108175  0.9301830701066722 1.0000   
         C         C         1.0       0.650673862207651   0.794644168949679   0.9478811350748438 1.0000   
         C         C         1.0       0.640160710210306   0.7684920588729844  0.9565752816401583 1.0000   
         C         C         1.0       0.6459541619882934  0.7488343424057006  0.9474142113462424 1.0000   
         H         H         1.0       0.971719913573521   0.6437981797821982  0.008600055305281185         1.0000   
         H         H         1.0       0.537516871380104   0.634861520082476   0.9696554285812633 1.0000   
         H         H         1.0       0.5047626704446169  0.603480487986666   0.9460895767457903 1.0000   
         H         H         1.0       0.9364904553705677  0.6109126391445437  0.9886556952443127 1.0000   
         H         H         1.0       0.5523143563707974  0.6299712827641653  0.004798408453767985         1.0000   
         H         H         1.0       0.5454502234136287  0.5961406274336298  0.03139978224923015          1.0000   
         H         H         1.0       0.0052614321413642084         0.6294378365868932 0.07443027495984007          1.0000   
         H         H         1.0       0.012212513855386353          0.6631815079152418 0.04994760614263687          1.0000   
         H         H         1.0       0.548125016708951   0.6953350940218836  0.964434481662377  1.0000   
         H         H         1.0       0.5898408430615333  0.7154955911802159  0.9488335684689118 1.0000   
         H         H         1.0       0.6239495172937934  0.6968317647568176  0.0007203554985560239        1.0000   
         H         H         1.0       0.5839624871503628  0.6813757462133969  0.017297096958506984         1.0000   
         H         H         1.0       0.6111680705649405  0.6630515318761208  0.9001723550075433 1.0000   
         H         H         1.0       0.6254171401683134  0.7044901955581688  0.9139553956698283 1.0000   
         H         H         1.0       0.637275756112131   0.6755466928384725  0.9726247770223841 1.0000   
         H         H         1.0       0.6259557237980566  0.6319577037979232  0.9551013956751242 1.0000   
         H         H         1.0       0.656860030636183   0.750562458837305   0.9976625498766097 1.0000   
         H         H         1.0       0.6996308857932516  0.7667656652203737  0.01403192571198012          1.0000   
         H         H         1.0       0.729444417338992   0.7376577060512371  0.9654229919103123 1.0000   
         H         H         1.0       0.6865005147030069  0.7207422215667634  0.9479971535565506 1.0000   
         H         H         1.0       0.6655522292896004  0.7416341481205404  0.9225958634767948 1.0000   
         H         H         1.0       0.6808674488788472  0.7859799220598037  0.9076253778600084 1.0000   
         H         H         1.0       0.6481805001847927  0.8097139895415414  0.955166421260112  1.0000   
         H         H         1.0       0.6276135748119434  0.7612055926073165  0.9706110187326713 1.0000   
         C         C         1.0       0.7928664658553871  0.49993372763065796           0.8612607094799417 1.0000   
         C         C         1.0       0.8093282181173624  0.9914555114389623  0.8419066864954845 1.0000   
         C         C         1.0       0.8308592806621415  0.9860345034067274  0.8451777212139471 1.0000   
         C         C         1.0       0.8472171118002565  0.9977651152044634  0.8630993848552866 1.0000   
         C         C         1.0       0.8275655528093647  0.5094948403496108  0.8853117592522387 1.0000   
         C         C         1.0       0.8044607792188565  0.5092179803551443  0.8797734173883599 1.0000   
         H         H         1.0       0.7958912184680377  0.9798800295733053  0.8285978810913011 1.0000   
         H         H         1.0       0.8348112470136689  0.9734209446721245  0.8351094871821022 1.0000   
         H         H         1.0       0.8367623723069424  0.5171737982057082  0.9003829476947561 1.0000   
         H         H         1.0       0.7957397873148047  0.5197002398788418  0.8894075086031945 1.0000   
         C         C         1.0       0.8899931359134466  0.5462626892759943  0.8944254421809836 1.0000   
         C         C         1.0       0.8854000824935478  0.5195602885955914  0.8951030494681117 1.0000   
         C         C         1.0       0.900086162816699   0.5139500176778325  0.9103866534838685 1.0000   
         C         C         1.0       0.9155769652031738  0.5333689328578931  0.924332066490215  1.0000   
         C         C         1.0       0.9179747814847214  0.5584072408496723  0.9235822491786512 1.0000   
         C         C         1.0       0.9053825595244569  0.5650922189720434  0.9084562555798541 1.0000   
         C         C         1.0       0.8726545961364254  0.9938497384327948  0.8675358545504546 1.0000   
         C         C         1.0       0.8924522424319746  0.999080832403348   0.8485353368567153 1.0000   
         C         C         1.0       0.9109400893818731  0.9890058776689014  0.8485387314939836 1.0000   
         C         C         1.0       0.9257538275633675  0.9912186614733555  0.8319123427876096 1.0000   
         C         C         1.0       0.9276799459135344  0.5145721205455093  0.8302308053528412 1.0000   
         C         C         1.0       0.9071863943595827  0.5204344651382983  0.8268240553685174 1.0000   
         C         C         1.0       0.8884337891168083  0.5168457827865964  0.8422642492165907 1.0000   
         C         C         1.0       0.8467658268227982  0.9590375333067713  0.8962718026654753 1.0000   
         C         C         1.0       0.8311621086941263  0.9326797684431205  0.9032825638335347 1.0000   
         C         C         1.0       0.8285896485549699  0.9111013391923037  0.8920889480821104 1.0000   
         C         C         1.0       0.8403990009416548  0.9154610042741105  0.8733235701008666 1.0000   
         C         C         1.0       0.853135820524503   0.9414481883206571  0.8655567265766614 1.0000   
         C         C         1.0       0.8572942930280265  0.9642962642199151  0.8768866321101263 1.0000   
         C         C         1.0       0.8117215905215495  0.8804627889250425  0.9011734393838884 1.0000   
         C         C         1.0       0.880902281998508   0.8881400601718519  0.9376780355024489 1.0000   
         C         C         1.0       0.8597512026863501  0.8902181320273392  0.9477432530657063 1.0000   
         C         C         1.0       0.8382649102415887  0.8871302103366615  0.9364256224801967 1.0000   
         C         C         1.0       0.8361739362421097  0.8828178259825101  0.915529827781252  1.0000   
         C         C         1.0       0.8566542506078577  0.8791575082507984  0.9065547073216877 1.0000   
         C         C         1.0       0.8789201120115616  0.8824396015373628  0.9170784567404909 1.0000   
         C         C         1.0       0.799956001693615   0.8540350004779728  0.8869712096208724 1.0000   
         C         C         1.0       0.7876827223679554  0.8516104116253156  0.8678229948896362 1.0000   
         C         C         1.0       0.7715236490518199  0.8261231681412293  0.8586375890047956 1.0000   
         C         C         1.0       0.7710647186668741  0.8042602010926595  0.8667091893738486 1.0000   
         C         C         1.0       0.7869620306774024  0.8061844249080543  0.8832503270758055 1.0000   
         C         C         1.0       0.7987066662497433  0.8303966273745477  0.8942779644257768 1.0000   
         C         C         1.0       0.7716005661063422  0.8540164695945845  0.9274408959980712 1.0000   
         C         C         1.0       0.7462650877999756  0.8481771362437464  0.9344957435437454 1.0000   
         C         C         1.0       0.7324795249121364  0.8597913114809616  0.9258484277433855 1.0000   
         C         C         1.0       0.7438247895874263  0.8786770754650325  0.9108262962679027 1.0000   
         C         C         1.0       0.7688869414325069  0.8844719858945995  0.9036187312903261 1.0000   
         C         C         1.0       0.7836963933122973  0.872447520933488   0.9115273039711628 1.0000   
         H         H         1.0       0.8834341380334899  0.5554066443698609  0.8824170088237769 1.0000   
         H         H         1.0       0.9074559021737437  0.9906498780106369  0.9011402936262748 1.0000   
         H         H         1.0       0.9242482482420398  0.5267412652146604  0.936599139745229  1.0000   
         H         H         1.0       0.9094093903204378  0.586126379819218   0.9064813667049851 1.0000   
         H         H         1.0       0.9126906699866913  0.9773672164401624  0.8606575344889285 1.0000   
         H         H         1.0       0.9371756876061866  0.981002093027269   0.8313135448680071 1.0000   
         H         H         1.0       0.9059919296009514  0.5292435606604091  0.8114285066136858 1.0000   
         H         H         1.0       0.8718343358228559  0.5190401109954946  0.8374103875967484 1.0000   
         H         H         1.0       0.8454590627100298  0.9739091773848408  0.9061234131096869 1.0000   
         H         H         1.0       0.8241876930273783  0.9315361651845047  0.9190247175480492 1.0000   
         H         H         1.0       0.8398218220339174  0.8988421033624284  0.8644919421160645 1.0000   
         H         H         1.0       0.8629958009512013  0.9433886020188438  0.8517228238457997 1.0000   
         H         H         1.0       0.859578680769286   0.8939264841432697  0.9639749386241819 1.0000   
         H         H         1.0       0.8206275272942332  0.8876461925597559  0.944138098543934  1.0000   
         H         H         1.0       0.8534293974038112  0.8722603030216879  0.8901471345548448 1.0000   
         H         H         1.0       0.8939066201132093  0.8811068359454274  0.9091867704230363 1.0000   
         H         H         1.0       0.7869720115096953  0.8681784942319055  0.8610585328266663 1.0000   
         H         H         1.0       0.7591376718737312  0.8243762109488609  0.8452177436242574 1.0000   
         H         H         1.0       0.7837058845715966  0.7877823191318788  0.890448070737142  1.0000   
         H         H         1.0       0.8074245246447862  0.8292418379805852  0.9091449823345646 1.0000   
         H         H         1.0       0.7810407740037322  0.8423090064226595  0.9337562512669856 1.0000   
         H         H         1.0       0.7376004625907296  0.8320600892864671  0.9452678076450365 1.0000   
         H         H         1.0       0.7341360726508862  0.8898045364956532  0.9058638879726054 1.0000   
         H         H         1.0       0.7761289573331634  0.8983301537998672  0.8908177320562779 1.0000   
         C         C         1.0       0.8069746069477913  0.7301892056059636  0.3466794939691103 1.0000   
         C         C         1.0       0.8112890341640625  0.7532519531888857  0.35717704945188755          1.0000   
         C         C         1.0       0.8326295907884514  0.7778172399550576  0.35295507536821463          1.0000   
         C         C         1.0       0.8494305204464838  0.7812718737371741  0.336627952144477  1.0000   
         C         C         1.0       0.8434654703528298  0.7581025020269941  0.325048691178514  1.0000   
         C         C         1.0       0.8236354785973983  0.7323477264763048  0.3305073442287277 1.0000   
         H         H         1.0       0.8018614313190368  0.7511438505312854  0.3717400330127588 1.0000   
         H         H         1.0       0.836333253480351   0.7938896756637911  0.3625746235420987 1.0000   
         H         H         1.0       0.854919577530782   0.7599789096239468  0.3111772512549824 1.0000   
         H         H         1.0       0.8198264713281148  0.7158130038716011  0.32108008042062114          1.0000   
         C         C         1.0       0.9070048448832537  0.7919153827473083  0.31893837588956364          1.0000   
         C         C         1.0       0.9010672483866181  0.8123403452350798  0.3202905220758479 1.0000   
         C         C         1.0       0.9174454977224067  0.8351516055928698  0.30791447375697856          1.0000   
         C         C         1.0       0.9387720841585976  0.8371517581646073  0.29696753838639967          1.0000   
         C         C         1.0       0.944997774298171   0.8170972154884204  0.29685395106897206          1.0000   
         C         C         1.0       0.9274352762452526  0.793188053693303   0.30665743489162045          1.0000   
         C         C         1.0       0.8763882134553228  0.8103101816022025  0.3331130282614888 1.0000   
         C         C         1.0       0.8936215071192679  0.8222668949943142  0.3539641710689936 1.0000   
         C         C         1.0       0.909229880431614   0.8508672698362819  0.35502820866470347          1.0000   
         C         C         1.0       0.9224539588488844  0.86334977712523    0.3724651022381736 1.0000   
         C         C         1.0       0.9229600875631127  0.8486075080632038  0.38883771106014486          1.0000   
         C         C         1.0       0.9088186479782087  0.8201259109349701  0.3876630003738194 1.0000   
         C         C         1.0       0.894927258470872   0.807312575840194   0.3702052057123437 1.0000   
         C         C         1.0       0.8514523787901516  0.8169241074761715  0.30247216414135825          1.0000   
         C         C         1.0       0.8365757799978261  0.8268779565403512  0.29281399839627065          1.0000   
         C         C         1.0       0.8326322627498164  0.8469086728580623  0.30277408836842956          1.0000   
         C         C         1.0       0.8467972335908299  0.8574108997966505  0.321353716526176  1.0000   
         C         C         1.0       0.859066088206027   0.8444932573813639  0.3310052612556124 1.0000   
         C         C         1.0       0.8627006689318868  0.8253839005070265  0.32235631354031014          1.0000   
         C         C         1.0       0.8165739889243627  0.8600919500689865  0.29070684777087336          1.0000   
         C         C         1.0       0.8736059257198905  0.904105815191642   0.24271807173884863          1.0000   
         C         C         1.0       0.8499586164348337  0.8812048203379986  0.23683815456691637          1.0000   
         C         C         1.0       0.8321564188384242  0.8665199907191253  0.2516307182627829 1.0000   
         C         C         1.0       0.8375555833517675  0.8749373743752766  0.2720072332909043 1.0000   
         C         C         1.0       0.8615310263401047  0.8979232234278756  0.2773499448535911 1.0000   
         C         C         1.0       0.880441665894792   0.9119425794466057  0.262941686480777  1.0000   
         C         C         1.0       0.8104007862950886  0.8801941967924375  0.3028495037066385 1.0000   
         C         C         1.0       0.8003785810402262  0.8757736952605693  0.3228550750033663 1.0000   
         C         C         1.0       0.790278906483464   0.8905541349035361  0.33211553987191345          1.0000   
         C         C         1.0       0.7924761415106603  0.9127419488483856  0.32190889095322844          1.0000   
         C         C         1.0       0.8007226928358484  0.917075471358808   0.3021178675845905 1.0000   
         C         C         1.0       0.8089347338907835  0.900619246365648   0.29228981945046717          1.0000   
         C         C         1.0       0.7694666955220121  0.8387615124946549  0.27075496652283926          1.0000   
         C         C         1.0       0.7427579288288282  0.8181492627029049  0.26698371673253996          1.0000   
         C         C         1.0       0.7313093410081689  0.7950290584857707  0.2780329048590823 1.0000   
         C         C         1.0       0.74656466500028    0.7932773120993111  0.29346995811534005          1.0000   
         C         C         1.0       0.773221455222036   0.8137838571998545  0.2979570723926773 1.0000   
         C         C         1.0       0.7858040879992809  0.8362520329172242  0.28600707101337   1.0000   
         H         H         1.0       0.894745428964191   0.772188739828912   0.32870950801680937          1.0000   
         H         H         1.0       0.9151242896725319  0.8521992791992623  0.30743986891575326          1.0000   
         H         H         1.0       0.9506712565214438  0.8563689215977156  0.289165106066928  1.0000   
         H         H         1.0       0.9276920058119658  0.7747086962636119  0.30489755415058567          1.0000   
         H         H         1.0       0.9119708411885986  0.863952078797065   0.34181690705083423          1.0000   
         H         H         1.0       0.9323061761242979  0.8842854524389129  0.3736408487372517 1.0000   
         H         H         1.0       0.9071607362420805  0.8086313245096572  0.4011145692516301 1.0000   
         H         H         1.0       0.8821958982101398  0.7856314145715468  0.371009263683795  1.0000   
         H         H         1.0       0.8520648973029177  0.800958475794904   0.2945273237793035 1.0000   
         H         H         1.0       0.8286220351800239  0.8200662738411064  0.2776062941474246 1.0000   
         H         H         1.0       0.8478092498215969  0.8743414085032915  0.32810782275755906          1.0000   
         H         H         1.0       0.8637707585061483  0.8497595142211134  0.34668424047862045          1.0000   
         H         H         1.0       0.8464051580164199  0.875635477752961   0.2207066380175138 1.0000   
         H         H         1.0       0.8150129063102899  0.8473697917008359  0.24714238509277017          1.0000   
         H         H         1.0       0.8651476561010909  0.9056224866134103  0.29163854203573625          1.0000   
         H         H         1.0       0.9004292322714624  0.9293820426278135  0.26647840867794825          1.0000   
         H         H         1.0       0.7987129951303582  0.8596285089871798  0.33151619246922764          1.0000   
         H         H         1.0       0.7834395953435215  0.8843369628872632  0.3473205504644978 1.0000   
         H         H         1.0       0.7992318378586085  0.931973761989936   0.29253699647362313          1.0000   
         H         H         1.0       0.8143648572292888  0.9053246941504557  0.2760949942472514 1.0000   
         H         H         1.0       0.7769579623582107  0.8570666815205489  0.2624129579651006 1.0000   
         H         H         1.0       0.7294944155378611  0.8215337178986851  0.2566507286411033 1.0000   
         H         H         1.0       0.7398521451172717  0.7764296993817403  0.3028427189409048 1.0000   
         H         H         1.0       0.7818850273190611  0.8114217580151084  0.3122445104594494 1.0000   
         C         C         1.0       0.5029255067119149  0.7080179570884655  0.20172457352248346          1.0000   
         C         C         1.0       0.5237516308830263  0.727568724582219   0.19101544689461544          1.0000   
         C         C         1.0       0.5347727938124903  0.7548575084794976  0.19645785450216077          1.0000   
         C         C         1.0       0.5230991764869422  0.7624166796381256  0.21181822213079257          1.0000   
         C         C         1.0       0.5055933081767657  0.7420055392128445  0.22430013699443263          1.0000   
         C         C         1.0       0.49539835903388785           0.7154087286784298 0.21898235490524298          1.0000   
         H         H         1.0       0.5325076796021282  0.7220300915027035  0.17858070817994087          1.0000   
         H         H         1.0       0.5514784676853902  0.7704053886274979  0.18774188907999248          1.0000   
         H         H         1.0       0.5008167640015287  0.747452908914191   0.23800497722921612          1.0000   
         H         H         1.0       0.48087959810142433           0.6999573841205567 0.22961267242337458          1.0000   
         C         C         1.0       0.9916158214287785  0.7876205571459987  0.22750460844196468          1.0000   
         C         C         1.0       0.5091478095375327  0.7978367213225636  0.22827749850039222          1.0000   
         C         C         1.0       0.5187119285092973  0.8209984189130526  0.24098015046785282          1.0000   
         C         C         1.0       0.014748175472114822          0.8354456697600504 0.24867540366644517          1.0000   
         C         C         1.0       0.9866175299706335  0.818841324451728   0.2486549267828176 1.0000   
         C         C         1.0       0.9750955030138061  0.7943019956640508  0.23761610891290538          1.0000   
         C         C         1.0       0.5299321513070786  0.7934844419369147  0.21430306399012117          1.0000   
         C         C         1.0       0.5254458455472275  0.8067673134439904  0.19423872477843337          1.0000   
         C         C         1.0       0.534298232392894   0.8352228577302139  0.19313029153064032          1.0000   
         C         C         1.0       0.5285454157611073  0.8464514443976415  0.1767968702308193 1.0000   
         C         C         1.0       0.5166897672990086  0.8305004113462637  0.1599360368335224 1.0000   
         C         C         1.0       0.5073578413500238  0.8019746238105266  0.16099834744251637          1.0000   
         C         C         1.0       0.5102073206053256  0.7901185414190616  0.1787900215133949 1.0000   
         C         C         1.0       0.5681122129457065  0.8046541868339758  0.2413194087634757 1.0000   
         C         C         1.0       0.5944667381393691  0.8142397329920084  0.24681964011070862          1.0000   
         C         C         1.0       0.615807260424322   0.8310178942992638  0.23320364139287936          1.0000   
         C         C         1.0       0.6085233721205737  0.8361678870683957  0.2149857101432604 1.0000   
         C         C         1.0       0.5817980060097396  0.8228730711023594  0.20801179567144185          1.0000   
         C         C         1.0       0.5606557690572854  0.8073994819787429  0.2218536807844281 1.0000   
         C         C         1.0       0.647296553270712   0.8474833137219948  0.24219819750936367          1.0000   
         C         C         1.0       0.649662968876416   0.9214661649971022  0.2614450289370157 1.0000   
         C         C         1.0       0.6416713999569402  0.9001127196609731  0.27496729367333306          1.0000   
         C         C         1.0       0.6422672883428805  0.8771527080825374  0.2683792065982823 1.0000   
         C         C         1.0       0.6476935704222039  0.8746457255562532  0.24861487273612276          1.0000   
         C         C         1.0       0.6543353027362352  0.8962243704153954  0.235122222188079  1.0000   
         C         C         1.0       0.6563624479024258  0.9196300044493239  0.241531114431472  1.0000   
         C         C         1.0       0.6711696603573393  0.85453105924756    0.22570926364771005          1.0000   
         C         C         1.0       0.6681919626610541  0.8391151222503797  0.20849274844452492          1.0000   
         C         C         1.0       0.6888011221680386  0.8456743696439791  0.19498525190132052          1.0000   
         C         C         1.0       0.7142379260901383  0.8670723407713387  0.20029557139212864          1.0000   
         C         C         1.0       0.7188437684231948  0.8803466542427589  0.21866455154430448          1.0000   
         C         C         1.0       0.6975707841052459  0.8741291583389171  0.23155386090331653          1.0000   
         C         C         1.0       0.6445998993340413  0.8022615957245286  0.25172868369612195          1.0000   
         C         C         1.0       0.6539162588872639  0.7868957549013396  0.2612356163305089 1.0000   
         C         C         1.0       0.6711734133948515  0.7973536488337633  0.2774950789388353 1.0000   
         C         C         1.0       0.6799589411056193  0.8237204561086675  0.2840634406329441 1.0000   
         C         C         1.0       0.6721913839367178  0.8394689627136186  0.2734328914587303 1.0000   
         C         C         1.0       0.653730061570946   0.829293699333156   0.2572904380338694 1.0000   
         H         H         1.0       0.9795638750230578  0.7693088281927508  0.218199869916501  1.0000   
         H         H         1.0       0.5403770210662526  0.8356929881715083  0.24043079369247297          1.0000   
         H         H         1.0       0.507551461473068   0.8394546274385474  0.26327116711634097          1.0000   
         H         H         1.0       0.9522759231313659  0.7812888679444965  0.23793279271186724          1.0000   
         H         H         1.0       0.5464604776482515  0.849008042871068   0.204231738093289  1.0000   
         H         H         1.0       0.5318503687431013  0.8668340373266954  0.17699294635690546          1.0000   
         H         H         1.0       0.4985007345623871  0.7903991023591315  0.14771012735435363          1.0000   
         H         H         1.0       0.500350825244652   0.7680517109285085  0.17888607745648316          1.0000   
         H         H         1.0       0.5499272688891208  0.7929959421051002  0.25093520134899605          1.0000   
         H         H         1.0       0.5974332908975393  0.8113377115233907  0.26292940923394753          1.0000   
         H         H         1.0       0.6232572872501477  0.8509429702632982  0.2046779954651969 1.0000   
         H         H         1.0       0.5798468493973613  0.8279148378361392  0.19274081979082858          1.0000   
         H         H         1.0       0.6342478271414882  0.899971003169946   0.2900376574135714 1.0000   
         H         H         1.0       0.6343520746442529  0.8601721696236081  0.2778169961873661 1.0000   
         H         H         1.0       0.656903014851056   0.8946822586761858  0.2191703375170801 1.0000   
         H         H         1.0       0.6624031794387445  0.9342347548587627  0.23038134147580464          1.0000   
         H         H         1.0       0.6481902106275531  0.8216506677871368  0.20523303664094703          1.0000   
         H         H         1.0       0.6872653446000823  0.8347257200521241  0.18125182626284508          1.0000   
         H         H         1.0       0.7377598905918824  0.8971279476571122  0.22322394039438856          1.0000   
         H         H         1.0       0.7022208100923414  0.8860074315061072  0.24548799772160196          1.0000   
         H         H         1.0       0.6328926472313656  0.7953036279900443  0.2380714390451089 1.0000   
         H         H         1.0       0.6467430001940818  0.7658075110637242  0.2548028455787171 1.0000   
         H         H         1.0       0.6923012197798397  0.8296215893871991  0.29736701234664975          1.0000   
         H         H         1.0       0.6811036545729278  0.8609564876422524  0.27718342872273366          1.0000   
         C         C         1.0       0.7695895921373269  0.9168525841088091  0.16219965865002367          1.0000   
         C         C         1.0       0.7828475384849648  0.9057766708458094  0.15165342591149034          1.0000   
         C         C         1.0       0.8080863043329786  0.9209862983028385  0.14518328848632844          1.0000   
         C         C         1.0       0.8226810825966094  0.9485093459732465  0.1486361763214188 1.0000   
         C         C         1.0       0.8078678925509999  0.9599418786459816  0.15635207170166687          1.0000   
         C         C         1.0       0.7821072873848617  0.9440779767583241  0.16314755548619536          1.0000   
         H         H         1.0       0.7730433294281642  0.8841416971373566  0.14841401508665622          1.0000   
         H         H         1.0       0.8182528434877835  0.9111298129013632  0.13713159813262765          1.0000   
         H         H         1.0       0.8176337274774751  0.9807599049615043  0.1601846036335207 1.0000   
         H         H         1.0       0.7736705337824438  0.9526675208291847  0.17204859123751212          1.0000   
         C         C         1.0       0.8473350093880653  0.9472428734630962  0.10916820677454361          1.0000   
         C         C         1.0       0.8641559758288602  0.9568745039819878  0.125214887540354  1.0000   
         C         C         1.0       0.8895776519464514  0.9592681969060256  0.12459350001894631          1.0000   
         C         C         1.0       0.8965036708390058  0.9488058444510307  0.10728997955968418          1.0000   
         C         C         1.0       0.8787870011373067  0.9386503720732527  0.09107454065271266          1.0000   
         C         C         1.0       0.8532732182564513  0.9360095037744571  0.09350457224262919          1.0000   
         C         C         1.0       0.8548535351946718  0.9652831458355627  0.14551654091341742          1.0000   
         C         C         1.0       0.8638277452711095  0.9581729182783936  0.1663347055542176 1.0000   
         C         C         1.0       0.8707067859482689  0.9747248678524769  0.18342362335574303          1.0000   
         C         C         1.0       0.8812686684836107  0.9684086528110141  0.20096250988177478          1.0000   
         C         C         1.0       0.8845662107505868  0.946617527108456   0.20141750268459352          1.0000   
         C         C         1.0       0.8769692222283435  0.929956517654584   0.18472333392423476          1.0000   
         C         C         1.0       0.8655333551878441  0.9347974187862483  0.16769298696156804          1.0000   
         C         C         1.0       0.8578389292483193  0.5067077391767576  0.12844586101478359          1.0000   
         C         C         1.0       0.8699525625386586  0.5333846415379601  0.12317232288702869          1.0000   
         C         C         1.0       0.8927480406870938  0.5530635427721957  0.1331799883878759 1.0000   
         C         C         1.0       0.9071394886246725  0.5439409979917627  0.14640074217593432          1.0000   
         C         C         1.0       0.8944968893467943  0.5171518091853757  0.15213000219492795          1.0000   
         C         C         1.0       0.8693313678939867  0.4981076883513705  0.14410114277569652          1.0000   
         C         C         1.0       0.9107891546649726  0.5832615317718334  0.12517392556994122          1.0000   
         C         C         1.0       0.9653876275177525  0.5687341578218624  0.08618378696898295          1.0000   
         C         C         1.0       0.94029819765504    0.5645137700158551  0.07843472548342824          1.0000   
         C         C         1.0       0.9218017382531365  0.5672384752555614  0.09075692312929076          1.0000   
         C         C         1.0       0.9288752681394588  0.5772521820185356  0.10952954356367103          1.0000   
         C         C         1.0       0.9547483929097182  0.584030264967236   0.1171393852532265 1.0000   
         C         C         1.0       0.9716015398179386  0.5783892629221229  0.10626575823608816          1.0000   
         C         C         1.0       0.9268004353350058  0.6075728752884988  0.14157996656489133          1.0000   
         C         C         1.0       0.9161629241393314  0.6051439237448869  0.16046968345521356          1.0000   
         C         C         1.0       0.9290775520696458  0.6247370370472559  0.1747822662644617 1.0000   
         C         C         1.0       0.9505049072515981  0.6486596154372494  0.169795133020479  1.0000   
         C         C         1.0       0.9610969551278816  0.6530723008831968  0.1508511945894475 1.0000   
         C         C         1.0       0.9489137157021907  0.6330274778656346  0.13654340133937734          1.0000   
         C         C         1.0       0.9050906374254813  0.6122785906685476  0.09694814637256752          1.0000   
         C         C         1.0       0.8895871519014029  0.6212087062027132  0.08678755182610226          1.0000   
         C         C         1.0       0.8645446899444132  0.615440332899128   0.09341694102473742          1.0000   
         C         C         1.0       0.8550892073829808  0.6026832554451813  0.11161657953570592          1.0000   
         C         C         1.0       0.8703193585243293  0.5928427162698714  0.12153642141690692          1.0000   
         C         C         1.0       0.8950863430305909  0.5964571322723714  0.11448245297645321          1.0000   
         H         H         1.0       0.8298417623659409  0.949576428155771   0.10698766648040997          1.0000   
         H         H         1.0       0.9022890939197918  0.9672938943995862  0.13802301719300492          1.0000   
         H         H         1.0       0.9147614719880482  0.9467946169353856  0.10905566798549365          1.0000   
         H         H         1.0       0.8388677411226039  0.9262886934725841  0.0811388030332055 1.0000   
         H         H         1.0       0.8720919982292261  0.9953755775380484  0.18357820009841594          1.0000   
         H         H         1.0       0.8875459579081875  0.9832812380181771  0.2131623973943833 1.0000   
         H         H         1.0       0.8768982514906148  0.9108698012313602  0.1859045003474017 1.0000   
         H         H         1.0       0.8597044729161509  0.9209071306378693  0.15528441730059442          1.0000   
         H         H         1.0       0.8327616253671963  0.992765073453782   0.121470556322563  1.0000   
         H         H         1.0       0.8616472395088862  0.540761584441795   0.11091514322835953          1.0000   
         H         H         1.0       0.9266406184364256  0.556880869712573   0.15337850162421957          1.0000   
         H         H         1.0       0.9056597251751857  0.5110992013622004  0.16272192381946227          1.0000   
         H         H         1.0       0.9334533669056958  0.5550097288864135  0.06382839089609872          1.0000   
         H         H         1.0       0.900817493176794   0.5608343679424751  0.0856771771057061 1.0000   
         H         H         1.0       0.9625860851207994  0.5923041463592903  0.13248726051878146          1.0000   
         H         H         1.0       0.49692924706199754           0.5883544429730695 0.1067030173546869 1.0000   
         H         H         1.0       0.899264042311286   0.584435994798795   0.16494795164171322          1.0000   
         H         H         1.0       0.9184374668104638  0.6220032738849852  0.18952823560195384          1.0000   
         H         H         1.0       0.9793492569664702  0.6734903116769708  0.14696904912891032          1.0000   
         H         H         1.0       0.9579271746695228  0.6353397003776806  0.1221465679505364 1.0000   
         H         H         1.0       0.9240573701280437  0.6161276997929063  0.09084744027118868          1.0000   
         H         H         1.0       0.8982302264115288  0.6327288978308423  0.07263301574974852          1.0000   
         H         H         1.0       0.8361163486352257  0.5983344579940266  0.11717415823396019          1.0000   
         H         H         1.0       0.8625658543429249  0.581319015337909   0.13613195664881422          1.0000   
         C         C         1.0       0.7798552601130364  0.7513625658736931  0.01682856168269254          1.0000   
         C         C         1.0       0.7992658305710593  0.7524957667251182  0.002604875112539494         1.0000   
         C         C         1.0       0.8266070304218786  0.7672197922399127  0.00818054292487277          1.0000   
         C         C         1.0       0.8347833080872226  0.7838808559898287  0.02531667672251598          1.0000   
         C         C         1.0       0.8149909369413052  0.780085385681541   0.039855979839575305         1.0000   
         C         C         1.0       0.7867660205687402  0.7626947403564076  0.035909888025640956         1.0000   
         H         H         1.0       0.7934290369462893  0.7417575944227658  0.9877671921195655 1.0000   
         H         H         1.0       0.8408237561875969  0.7685743911086559  0.9961129664573753 1.0000   
         H         H         1.0       0.8227962460731725  0.7901150447442177  0.05419725983901673          1.0000   
         H         H         1.0       0.7709691865292707  0.758770027773384   0.04712235204545682          1.0000   
         C         C         1.0       0.8507778556915744  0.8430661577202551  0.03741692136234648          1.0000   
         C         C         1.0       0.8706400253136137  0.8351379805984052  0.037569090291897325         1.0000   
         C         C         1.0       0.8940124513558583  0.850733182863512   0.049120293538776796         1.0000   
         C         C         1.0       0.8964360599954161  0.870508700236947   0.0626281892482616 1.0000   
         C         C         1.0       0.87440491117229    0.8762639338458678  0.06292319487931898          1.0000   
         C         C         1.0       0.8513772285015065  0.8616535478356693  0.050527473650657705         1.0000   
         C         C         1.0       0.8655566326549086  0.8070298857410749  0.02603917511972846          1.0000   
         C         C         1.0       0.8770063374695679  0.8207908975017658  0.004213412742079034         1.0000   
         C         C         1.0       0.9048631274021411  0.833525970662869   0.0015970963898894212        1.0000   
         C         C         1.0       0.9183185212156653  0.8508107955933049  0.9858216770554854 1.0000   
         C         C         1.0       0.9016730822900108  0.8531552218936884  0.9712046812128693 1.0000   
         C         C         1.0       0.8738441514044604  0.840025497864213   0.9725365703371138 1.0000   
         C         C         1.0       0.8618248475791906  0.8243774023031629  0.9893313186006112 1.0000   
         C         C         1.0       0.8770226341656353  0.788787182163986   0.057527030664255796         1.0000   
         C         C         1.0       0.890973586361386   0.7796091014572591  0.06912985900337695          1.0000   
         C         C         1.0       0.9059974844537038  0.769875855679529   0.05909264224487762          1.0000   
         C         C         1.0       0.9037812007695271  0.767234917526917   0.03824884422875717          1.0000   
         C         C         1.0       0.8904467593614278  0.7776342165671871  0.02645147935621631          1.0000   
         C         C         1.0       0.8780184607551336  0.7902726371249231  0.036922622652670434         1.0000   
         C         C         1.0       0.9246966643477608  0.761263390988512   0.07154352179832754          1.0000   
         C         C         1.0       0.9669034751375907  0.8186620906951138  0.12352219770463198          1.0000   
         C         C         1.0       0.9513486085751887  0.7905182506174658  0.1273719875956277 1.0000   
         C         C         1.0       0.9395302867899311  0.7719164371446783  0.11134841567579808          1.0000   
         C         C         1.0       0.9390827588810673  0.7812228681914276  0.09108537873447256          1.0000   
         C         C         1.0       0.9520931619069318  0.8089651535888271  0.08875360187649248          1.0000   
         C         C         1.0       0.9659311912955854  0.8274978146827923  0.10453494989532275          1.0000   
         C         C         1.0       0.9522179807880239  0.7648523785284962  0.06272928220664194          1.0000   
         C         C         1.0       0.9641204881224195  0.7495034567494773  0.06997808056834345          1.0000   
         C         C         1.0       0.9903324218710268  0.7557362891001238  0.06482399337313256          1.0000   
         C         C         1.0       0.0024095485853536935         0.7742972810180866 0.049371950495272446         1.0000   
         C         C         1.0       0.991406091428082   0.7892909427946813  0.04100837002369607          1.0000   
         C         C         1.0       0.9665472672650386  0.7844256021869207  0.04853026147917979          1.0000   
         C         C         1.0       0.8835102256734363  0.7206048785470278  0.09016037622332355          1.0000   
         C         C         1.0       0.8641413811168557  0.6935594297389837  0.09204798465819065          1.0000   
         C         C         1.0       0.864119034721927   0.6744371585591652  0.07957503800132525          1.0000   
         C         C         1.0       0.8820686181243036  0.6831410684994399  0.06378235577382192          1.0000   
         C         C         1.0       0.8997221811613968  0.7102220636320693  0.06089857104087464          1.0000   
         C         C         1.0       0.9030440036374342  0.7297832112124597  0.0751185901694522 1.0000   
         H         H         1.0       0.8326576774690065  0.8343560648638586  0.02749635637864228          1.0000   
         H         H         1.0       0.91015434925565    0.8452333768750464  0.0481980014058629 1.0000   
         H         H         1.0       0.9120033036007683  0.8785930524260291  0.07383887124756   1.0000   
         H         H         1.0       0.8353681579627846  0.8669136896648029  0.0510680406726103 1.0000   
         H         H         1.0       0.9158796245878349  0.8338728385677439  0.014826668673996261         1.0000   
         H         H         1.0       0.9402989553378995  0.8630679989439584  0.9837844755303768 1.0000   
         H         H         1.0       0.860136346940745   0.8386923529193957  0.9597092771212439 1.0000   
         H         H         1.0       0.839403946314073   0.8150749930999613  0.9920890897939648 1.0000   
         H         H         1.0       0.8677618142894377  0.7977914421222472  0.0654629044769525 1.0000   
         H         H         1.0       0.8915264430780969  0.781725388828313   0.08520854009006852          1.0000   
         H         H         1.0       0.9136171662145888  0.7569800965716078  0.031551410386393766         1.0000   
         H         H         1.0       0.8934910509391989  0.7772111312816068  0.009566977638966585         1.0000   
         H         H         1.0       0.9527305616202197  0.7830612720985152  0.14228212005134533          1.0000   
         H         H         1.0       0.9308743091815376  0.7502815468440331  0.11596898171563251          1.0000   
         H         H         1.0       0.9528861841164796  0.817137740921862   0.07401231620459134          1.0000   
         H         H         1.0       0.9769686698494053  0.849379614243937   0.101291340801684  1.0000   
         H         H         1.0       0.9539151914820677  0.7349629582896873  0.08200212496283   1.0000   
         H         H         1.0       0.998099003849214   0.7429290371907853  0.06996740467827396          1.0000   
         H         H         1.0       0.0019990951305530746         0.8053750096962023 0.030161941225523004         1.0000   
         H         H         1.0       0.9579594735103615  0.7967963593558511  0.043098990800722714         1.0000   
         H         H         1.0       0.8810759757321847  0.7352782277365569  0.09885921443505988          1.0000   
         H         H         1.0       0.8495742149596854  0.6890865005779093  0.10433161658786423          1.0000   
         H         H         1.0       0.8821672932834015  0.6680498425743945  0.05327819534900469          1.0000   
         H         H         1.0       0.9122805035390468  0.7149281151136198  0.04737270384821003          1.0000   
         C         C         1.0       0.7520737263688912  0.7355370144266047  0.8394603470591417 1.0000   
         C         C         1.0       0.7475423578534677  0.715954925732155   0.8535141745857122 1.0000   
         C         C         1.0       0.7284060856189111  0.6889466885895842  0.8485399712965829 1.0000   
         C         C         1.0       0.7116547061760576  0.6817822010553103  0.8315718804477473 1.0000   
         C         C         1.0       0.7196712538606441  0.7015882365269916  0.8170076202920753 1.0000   
         C         C         1.0       0.7387942936630557  0.7281243576230436  0.8207668551106581 1.0000   
         H         H         1.0       0.7617607311716847  0.7205507725434009  0.8668244543848012 1.0000   
         H         H         1.0       0.7274842680307351  0.6734108327607145  0.858941893645834  1.0000   
         H         H         1.0       0.710148126495508   0.6945390354544507  0.8016199113120935 1.0000   
         H         H         1.0       0.7440630082728433  0.7433079560519578  0.8093374740621029 1.0000   
         C         C         1.0       0.6542943748706934  0.6649563557517025  0.8145894779479365 1.0000   
         C         C         1.0       0.6631864328368022  0.6470186068754901  0.8145279947563833 1.0000   
         C         C         1.0       0.6484594026560865  0.622109554234858   0.8032063633567402 1.0000   
         C         C         1.0       0.6260494444918788  0.6178225626845315  0.7915697054786833 1.0000   
         C         C         1.0       0.618738114439912   0.6376580795212096  0.7900134529362246 1.0000   
         C         C         1.0       0.6328957503661179  0.6610881192038954  0.8014857831083703 1.0000   
         C         C         1.0       0.6865614606608567  0.6505486623463549  0.8299700066715099 1.0000   
         C         C         1.0       0.6708186729224521  0.6396169258163793  0.8507918634368838 1.0000   
         C         C         1.0       0.6572981970153986  0.6118057122508428  0.856053441300821  1.0000   
         C         C         1.0       0.6454385599764487  0.604704069086324   0.874852524296947  1.0000   
         C         C         1.0       0.6469307242531643  0.6241319333758817  0.8886648501424973 1.0000   
         C         C         1.0       0.6561229568544572  0.6497957132991062  0.882082641528354  1.0000   
         C         C         1.0       0.6679649627473817  0.6571445121860603  0.8636471937096628 1.0000   
         C         C         1.0       0.7118636367377656  0.6411947945996861  0.8014239458104979 1.0000   
         C         C         1.0       0.7257403076264358  0.6287832937643051  0.7932631221373888 1.0000   
         C         C         1.0       0.727565641734959   0.6089855101463855  0.8039723294064878 1.0000   
         C         C         1.0       0.7192122315014581  0.6048343374798651  0.8242269061608045 1.0000   
         C         C         1.0       0.7090639552557629  0.6191777270146606  0.8327020258448999 1.0000   
         C         C         1.0       0.7019856043225273  0.6349843585913779  0.8213313586434008 1.0000   
         C         C         1.0       0.7392132575287388  0.5903698866054887  0.7942080190290761 1.0000   
         C         C         1.0       0.666879412800242   0.5393513020973817  0.7577557922315635 1.0000   
         C         C         1.0       0.6872652596592552  0.5624199697894109  0.7484118361478582 1.0000   
         C         C         1.0       0.7120225023288057  0.57838598648286    0.7586084100453595 1.0000   
         C         C         1.0       0.7143386298116755  0.5724848504825988  0.7786537927775112 1.0000   
         C         C         1.0       0.6913701851181807  0.5503030981319569  0.7878326897126028 1.0000   
         C         C         1.0       0.6679820211893983  0.5333803932514065  0.7772243314494194 1.0000   
         C         C         1.0       0.7487483515673374  0.5736802856806597  0.8085824411340057 1.0000   
         C         C         1.0       0.7671396424811249  0.585182288263587   0.8240689788090579 1.0000   
         C         C         1.0       0.7777028639315617  0.5715715996113636  0.8344135001811617 1.0000   
         C         C         1.0       0.7717542525184962  0.5466362963222824  0.8287115493475722 1.0000   
         C         C         1.0       0.7531207905090036  0.5340815890647324  0.8129851905376652 1.0000   
         C         C         1.0       0.7435138776792024  0.5481632548658524  0.8022120593912383 1.0000   
         C         C         1.0       0.7868409692677893  0.6348998568916786  0.7909950637199432 1.0000   
         C         C         1.0       0.811441751134239   0.6498616764745844  0.7830988780742193 1.0000   
         C         C         1.0       0.8208681658037674  0.639836265100279   0.7684905828741592 1.0000   
         C         C         1.0       0.8039544185069176  0.6140593770854074  0.760874499505816  1.0000   
         C         C         1.0       0.7776742987550638  0.5994505479281986  0.767311587902865  1.0000   
         C         C         1.0       0.7679337431989582  0.6101251454727689  0.7829095785970007 1.0000   
         H         H         1.0       0.6668146550432043  0.6841129320571998  0.8239812719369163 1.0000   
         H         H         1.0       0.6551159433849979  0.6073089146609308  0.8033957481550106 1.0000   
         H         H         1.0       0.6152460419110162  0.5985601819827018  0.7836562115314416 1.0000   
         H         H         1.0       0.627236684651668   0.6778347284902569  0.8008869018357875 1.0000   
         H         H         1.0       0.6558225940350985  0.5953304641657177  0.84654171953141   1.0000   
         H         H         1.0       0.6379036547094663  0.5839797354666709  0.8801925356799759 1.0000   
         H         H         1.0       0.6558379204176615  0.6651851108113841  0.8928483536808691 1.0000   
         H         H         1.0       0.675509248000313   0.6779894756358423  0.8576764500686274 1.0000   
         H         H         1.0       0.7097518752500297  0.6545953416045831  0.7914932344811132 1.0000   
         H         H         1.0       0.7355471392513907  0.6351661023460887  0.7785466000551263 1.0000   
         H         H         1.0       0.7221137867608884  0.5902552977154584  0.8322548137066267 1.0000   
         H         H         1.0       0.7025301967573986  0.6163380953722357  0.8480510911206854 1.0000   
         H         H         1.0       0.685231021127964   0.5667472586596918  0.732694550537969  1.0000   
         H         H         1.0       0.7285682425868031  0.5941301088487905  0.7498129904198517 1.0000   
         H         H         1.0       0.6938035785777441  0.54732011192216    0.8050948466513878 1.0000   
         H         H         1.0       0.6496262064841271  0.5168377045602544  0.7850933198862879 1.0000   
         H         H         1.0       0.7761589685946283  0.6069512709930196  0.8269731713800832 1.0000   
         H         H         1.0       0.7902550370174908  0.5829484111683911  0.8461281195927116 1.0000   
         H         H         1.0       0.7490842375000449  0.5135591800209751  0.8077271782408961 1.0000   
         H         H         1.0       0.7318916230601304  0.5385021299828805  0.7891382858238132 1.0000   
         H         H         1.0       0.7814691690884379  0.6420903168190262  0.8040025465479719 1.0000   
         H         H         1.0       0.8253732419325382  0.6692593210000681  0.792133449226498  1.0000   
         H         H         1.0       0.8113522046580461  0.6052030735164209  0.7497011830402814 1.0000   
         H         H         1.0       0.7625047446332456  0.5810659425346538  0.759541372259039  1.0000   
         C         C         1.0       0.5438265675888599  0.7338662632738838  0.685321958474652  1.0000   
         C         C         1.0       0.5250126659492487  0.7120156043287584  0.6733360889260951 1.0000   
         C         C         1.0       0.5169105170586962  0.684933823170702   0.678126486495254  1.0000   
         C         C         1.0       0.5301781759306995  0.6794476887501009  0.693136045347024  1.0000   
         C         C         1.0       0.5488523623809711  0.7018034709070845  0.705181049250445  1.0000   
         C         C         1.0       0.5545914142130614  0.7278287661830677  0.7021622869266193 1.0000   
         H         H         1.0       0.5135095143083431  0.7129036260334939  0.6609087756409272 1.0000   
         H         H         1.0       0.49975205282755897           0.6675511978981934 0.6708195088564676 1.0000   
         H         H         1.0       0.5531727389615261  0.6972458956426651  0.7200592403323767 1.0000   
         H         H         1.0       0.5669628480839172  0.7426970046977358  0.7134082144902514 1.0000   
         C         C         1.0       0.573080581954389   0.6628689396877844  0.7127413839645722 1.0000   
         C         C         1.0       0.5456338259804139  0.647504833835101   0.7150471257780673 1.0000   
         C         C         1.0       0.5368358493678996  0.6260575651362595  0.729431315460717  1.0000   
         C         C         1.0       0.5540840573240481  0.624822810215955   0.7436445141423119 1.0000   
         C         C         1.0       0.5817780663532471  0.64219110934183    0.7414211333190448 1.0000   
         C         C         1.0       0.5909554994173131  0.6621942054778831  0.7263747363824313 1.0000   
         C         C         1.0       0.5250223795203997  0.6496170976648902  0.6992452758589184 1.0000   
         C         C         1.0       0.5275918410096566  0.6353849574167352  0.6780413548498734 1.0000   
         C         C         1.0       0.5216690147513833  0.6094845335240826  0.6777469683572307 1.0000   
         C         C         1.0       0.5250355310709766  0.596605259357197   0.6613710575005834 1.0000   
         C         C         1.0       0.5344731275774949  0.6111581784699658  0.6431895809041052 1.0000   
         C         C         1.0       0.5436901548031758  0.638775459313307   0.6430923852453524 1.0000   
         C         C         1.0       0.540857177885709   0.650334285280241   0.6604609831493684 1.0000   
         C         C         1.0       0.4915879784966239  0.6461527109930777  0.7292631107913182 1.0000   
         C         C         1.0       0.9705930280302021  0.6297958199156092  0.740164791208855  1.0000   
         C         C         1.0       0.9470814636262961  0.6070513942405806  0.7327256286499916 1.0000   
         C         C         1.0       0.9479525833097519  0.6001269166127973  0.7127099899017221 1.0000   
         C         C         1.0       0.9714467488443214  0.6155752320715466  0.7009652716332936 1.0000   
         C         C         1.0       0.49483714300160786           0.635763924261442  0.7104837102212003 1.0000   
         C         C         1.0       0.9223525555127715  0.5925122881511363  0.7478764657469812 1.0000   
         C         C         1.0       0.9543998467716237  0.5578236917567356  0.7929298437816983 1.0000   
         C         C         1.0       0.9529067498095287  0.580899204747843   0.7974694512629386 1.0000   
         C         C         1.0       0.942370269959569   0.5916602398424022  0.7840714578427558 1.0000   
         C         C         1.0       0.9331480230886602  0.5795861869128061  0.7647388366607623 1.0000   
         C         C         1.0       0.9369211556497397  0.5585591768494661  0.759479992425714  1.0000   
         C         C         1.0       0.9477373692080661  0.5473161522511708  0.7732062637525586 1.0000   
         C         C         1.0       0.8952024040038356  0.5693261368735358  0.7353365942948049 1.0000   
         C         C         1.0       0.8843536974097409  0.5756355136185461  0.7175766483951336 1.0000   
         C         C         1.0       0.8574930772903558  0.5584997189664604  0.7111112135479398 1.0000   
         C         C         1.0       0.8409093048553041  0.5361414920457326  0.7221403259358351 1.0000   
         C         C         1.0       0.850555202507239   0.5279917497369603  0.7384403741529044 1.0000   
         C         C         1.0       0.8774040145051587  0.5445549976027243  0.7450332727122749 1.0000   
         C         C         1.0       0.8919938963584378  0.5996978144454326  0.7725658174004223 1.0000   
         C         C         1.0       0.879872036065664   0.6151681865826706  0.7794305020140392 1.0000   
         C         C         1.0       0.884292567748467   0.6390258847090969  0.7702098244510619 1.0000   
         C         C         1.0       0.903179536859628   0.6490773696720628  0.7545940961954645 1.0000   
         C         C         1.0       0.9127507417393383  0.6326149937102145  0.7475989691142126 1.0000   
         C         C         1.0       0.9100515197664923  0.6095959929354321  0.7574083186196483 1.0000   
         H         H         1.0       0.5809697515841703  0.6783244411734282  0.7012782581445043 1.0000   
         H         H         1.0       0.5164810630900045  0.610726439616222   0.7307506937698203 1.0000   
         H         H         1.0       0.5464176430012995  0.6092316609419067  0.7549464311330945 1.0000   
         H         H         1.0       0.6121640591377427  0.6763366968616593  0.7234376460368785 1.0000   
         H         H         1.0       0.5164419484716938  0.5987326421951878  0.6928632099127036 1.0000   
         H         H         1.0       0.5202160700635472  0.5765688156891238  0.6636012964355487 1.0000   
         H         H         1.0       0.5536432713864022  0.6519854999342127  0.6296996761748795 1.0000   
         H         H         1.0       0.5500649655134615  0.6722416646672359  0.6595844203565024 1.0000   
         H         H         1.0       0.5091775060235322  0.6639437106983657  0.7357679560666169 1.0000   
         H         H         1.0       0.9689611322373682  0.6362551132280383  0.7561902839506237 1.0000   
         H         H         1.0       0.9300726164040574  0.5843778839374107  0.7057731288717947 1.0000   
         H         H         1.0       0.9704462935490579  0.6104098497457408  0.6854639970282497 1.0000   
         H         H         1.0       0.9615530554812125  0.589269259272149   0.8127187659143857 1.0000   
         H         H         1.0       0.9433660694381709  0.609999475806066   0.7884991997445125 1.0000   
         H         H         1.0       0.9337572002870859  0.5502825950765441  0.7441692738722756 1.0000   
         H         H         1.0       0.9562775409806964  0.5352018896795631  0.7679767745181463 1.0000   
         H         H         1.0       0.8957136564155507  0.5950890263589055  0.7110475279041306 1.0000   
         H         H         1.0       0.8472221568409559  0.5607696148489261  0.6977214661914245 1.0000   
         H         H         1.0       0.8362779962465642  0.5088892814532295  0.7465286792489881 1.0000   
         H         H         1.0       0.8816519502836853  0.5394248962196141  0.7598706338752308 1.0000   
         H         H         1.0       0.8865214907270823  0.5806667698677614  0.7803046142136428 1.0000   
         H         H         1.0       0.8647966744119179  0.6063864507678918  0.7907679520434463 1.0000   
         H         H         1.0       0.9069726264638573  0.6693160442781906  0.7484515199778221 1.0000   
         H         H         1.0       0.924909526228814   0.6407268488725928  0.7340795045330847 1.0000   
         C         C         1.0       0.5576774296724499  0.7608483650372537  0.5068707553883262 1.0000   
         C         C         1.0       0.5423985058883573  0.7669924161922194  0.5202576377814095 1.0000   
         C         C         1.0       0.5356108346240409  0.786374534645504   0.5149039563710271 1.0000   
         C         C         1.0       0.5455343030936101  0.8017223774047542  0.49743818925761446          1.0000   
         C         C         1.0       0.5561681976770516  0.791355987001699   0.48293181886934144          1.0000   
         C         C         1.0       0.560226520184499   0.7692305340658884  0.4872583671118765 1.0000   
         H         H         1.0       0.5337377759769342  0.7556360292908272  0.5339924934167646 1.0000   
         H         H         1.0       0.5262006161584589  0.7939959794394194  0.5260102953235721 1.0000   
         H         H         1.0       0.5652846220242602  0.8032237878073925  0.46926580729480327          1.0000   
         H         H         1.0       0.5682624709559306  0.7618350614110891  0.47508060131756435          1.0000   
         C         C         1.0       0.5850856377238614  0.8556034174245949  0.4732495518812964 1.0000   
         C         C         1.0       0.55727086017834    0.8458193544812814  0.47490010299271374          1.0000   
         C         C         1.0       0.544961315732124   0.8561818631771506  0.4617771871000736 1.0000   
         C         C         1.0       0.5594100127482152  0.8747608954928682  0.4476804071307224 1.0000   
         C         C         1.0       0.5862244287022278  0.8829115657986357  0.4452178059508379 1.0000   
         C         C         1.0       0.5985539069967477  0.8723792611596428  0.45778828539076244          1.0000   
         C         C         1.0       0.5390392299823602  0.8249911150726584  0.49262599522599254          1.0000   
         C         C         1.0       0.5442843600503989  0.8466415032013404  0.5107552499057749 1.0000   
         C         C         1.0       0.5320465941243852  0.8621826745138316  0.5129596152685358 1.0000   
         C         C         1.0       0.5353598675419634  0.8771610684995171  0.530834901721866  1.0000   
         C         C         1.0       0.5507107756201655  0.8766993444761813  0.5465451106907121 1.0000   
         C         C         1.0       0.5648494102865718  0.8632102351640646  0.5436796943254634 1.0000   
         C         C         1.0       0.5626333361038569  0.8491260008143205  0.5264047365534644 1.0000   
         C         C         1.0       0.5026645209580612  0.7947876342098801  0.4678887448687109 1.0000   
         C         C         1.0       0.9716010849247014  0.7710099018418247  0.46670108194524235          1.0000   
         C         C         1.0       0.9479445272080839  0.769281484810054   0.47370977243069445          1.0000   
         C         C         1.0       0.9496417637035832  0.782797203266616   0.4919380530686528 1.0000   
         C         C         1.0       0.9736154270440049  0.7948994181934546  0.5035182684605709 1.0000   
         C         C         1.0       0.5081394127524225  0.8072922087769988  0.4865407755891336 1.0000   
         C         C         1.0       0.9215754272677704  0.7567473360000049  0.4595528431918867 1.0000   
         C         C         1.0       0.9516474810713332  0.8310822646581063  0.4259837778541394 1.0000   
         C         C         1.0       0.9542100138572911  0.8105243044132928  0.41785715465764495          1.0000   
         C         C         1.0       0.9439101527443906  0.7859700605385868  0.4279546034710614 1.0000   
         C         C         1.0       0.9306191556065768  0.7828938989861274  0.4466420835873739 1.0000   
         C         C         1.0       0.927264430141606   0.8037630284582045  0.45402245215646225          1.0000   
         C         C         1.0       0.9402243821995588  0.8284257397618895  0.4443934978891104 1.0000   
         C         C         1.0       0.8918545828523512  0.7459206253255696  0.47003230645050187          1.0000   
         C         C         1.0       0.8853525131714796  0.7323678256015993  0.48893575114902177          1.0000   
         C         C         1.0       0.8597137302808979  0.720855847909555   0.4968442303209162 1.0000   
         C         C         1.0       0.839727484284725   0.7225350146042709  0.4867103030666677 1.0000   
         C         C         1.0       0.8441547974072522  0.7330789688008703  0.46711520744819185          1.0000   
         C         C         1.0       0.8697602320645746  0.7446245930508837  0.45907549521986235          1.0000   
         C         C         1.0       0.8992887798573689  0.7208363214225469  0.43066988900400044          1.0000   
         C         C         1.0       0.8946846559669042  0.6968846269478282  0.4214126883334447 1.0000   
         C         C         1.0       0.8975824551969263  0.6769550481492456  0.431528402147029  1.0000   
         C         C         1.0       0.9080098922677377  0.6824636065040406  0.45019824133965664          1.0000   
         C         C         1.0       0.9167404363583178  0.708448165593278   0.4590836214248824 1.0000   
         C         C         1.0       0.9140993808716282  0.7281791471929111  0.4486188266042056 1.0000   
         H         H         1.0       0.5948419066869008  0.8504541470795439  0.48463922459079933          1.0000   
         H         H         1.0       0.5239513002966446  0.8506728649179324  0.4614632824400571 1.0000   
         H         H         1.0       0.5494633387172014  0.882969516823051   0.4381238250049508 1.0000   
         H         H         1.0       0.6195755249296127  0.8769961057688114  0.4560326503061022 1.0000   
         H         H         1.0       0.5213163265536077  0.8659582094909851  0.5011745489417888 1.0000   
         H         H         1.0       0.5256680013740259  0.8894597193340054  0.5329335878962794 1.0000   
         H         H         1.0       0.5740382480922991  0.8601545143735416  0.5572727366545217 1.0000   
         H         H         1.0       0.5744864925212841  0.8384310344531478  0.5264119966474585 1.0000   
         H         H         1.0       0.5189888474337557  0.798154867754641   0.4581528351469105 1.0000   
         H         H         1.0       0.9694421821260004  0.7600758146612665  0.4536149591267727 1.0000   
         H         H         1.0       0.9329887995861521  0.7845716064368695  0.4973949833172926 1.0000   
         H         H         1.0       0.971774034004167   0.8040721551465863  0.5173170785817542 1.0000   
         H         H         1.0       0.963729867010007   0.8114066779133025  0.4030164993264298 1.0000   
         H         H         1.0       0.9492712872299128  0.7708370634827495  0.4225469041397403 1.0000   
         H         H         1.0       0.9176956022931797  0.803766399572767   0.4681985102387099 1.0000   
         H         H         1.0       0.9425888873653036  0.8465012367354696  0.45286049608069506          1.0000   
         H         H         1.0       0.9011312495449201  0.7315932484460792  0.4965944531405016 1.0000   
         H         H         1.0       0.8566783996832089  0.7100089721414473  0.5111187918144902 1.0000   
         H         H         1.0       0.8249307297714371  0.7297304178772517  0.45983802572824733          1.0000   
         H         H         1.0       0.8737640944829376  0.7541309337446992  0.4442606671560346 1.0000   
         H         H         1.0       0.8971399372762974  0.7366323032199898  0.422395123767066  1.0000   
         H         H         1.0       0.8889848085226536  0.6922940951374087  0.4049489255047913 1.0000   
         H         H         1.0       0.9105153924027115  0.6679891631301631  0.45889376363555295          1.0000   
         H         H         1.0       0.9251705664377363  0.7116624073662894  0.4750125097991495 1.0000   
         C         C         1.0       0.7421546921737411  0.9374652694587035  0.339017096352739  1.0000   
         C         C         1.0       0.71767066348449    0.9210831317205188  0.3477295255252093 1.0000   
         C         C         1.0       0.7041676103859514  0.9318987078619404  0.35846124188404827          1.0000   
         C         C         1.0       0.7142587976966601  0.9596388835477581  0.3569932118216412 1.0000   
         C         C         1.0       0.73987945112306    0.9763240745643132  0.34971067127352407          1.0000   
         C         C         1.0       0.7541465622895039  0.965959945065616   0.3406271449426171 1.0000   
         H         H         1.0       0.7074167753281795  0.8996363162041877  0.3467338690881643 1.0000   
         H         H         1.0       0.6839261204082034  0.9172401156411089  0.3629543911356793 1.0000   
         H         H         1.0       0.7494777765879677  0.998114081659023   0.3509650247650052 1.0000   
         H         H         1.0       0.7743340457155795  0.9804398265436162  0.33405579162526683          1.0000   
         C         C         1.0       0.6829953648685176  0.9507482446080048  0.3968600019385539 1.0000   
         C         C         1.0       0.67616184320148    0.9622605442063725  0.381011637434756  1.0000   
         C         C         1.0       0.6513122237882212  0.9626727368883938  0.38255871435353944          1.0000   
         C         C         1.0       0.6345743360971278  0.9507084953424818  0.3983946014110856 1.0000   
         C         C         1.0       0.6419695557849049  0.9395623363933412  0.41403591394372175          1.0000   
         C         C         1.0       0.6670404633399274  0.940836306743186   0.4136752680029307 1.0000   
         C         C         1.0       0.6969922219132667  0.9743584861168918  0.3623059711971707 1.0000   
         C         C         1.0       0.6792240236524925  0.9668447592252013  0.3417567642401053 1.0000   
         C         C         1.0       0.691581605399064   0.9850064465528715  0.3256199690414046 1.0000   
         C         C         1.0       0.6790364555668689  0.9822445319106637  0.30743940104388123          1.0000   
         C         C         1.0       0.6534756089596511  0.9591514279852     0.30337183008047425          1.0000   
         C         C         1.0       0.6424304887386664  0.9405962157666171  0.31860537058340255          1.0000   
         C         C         1.0       0.6560620629556162  0.943845924796971   0.336803000991822  1.0000   
         C         C         1.0       0.7334006071623558  0.5130566410534573  0.3966432356922318 1.0000   
         C         C         1.0       0.7454993124104989  0.5389183612630398  0.4042579350012069 1.0000   
         C         C         1.0       0.7368996345762001  0.5577353908791409  0.4001717166954735 1.0000   
         C         C         1.0       0.7147779457079552  0.5496626006222214  0.3870630620252485 1.0000   
         C         C         1.0       0.7025224424563593  0.5243975884563966  0.3786010407308938 1.0000   
         C         C         1.0       0.7118023985404296  0.505516366592067   0.3823731283739455 1.0000   
         C         C         1.0       0.752393005962269   0.587650421541031   0.41089499555976045          1.0000   
         C         C         1.0       0.6944600184539035  0.5618095082957031  0.45928462353130367          1.0000   
         C         C         1.0       0.715366162391917   0.5553797437978941  0.4599804787855433 1.0000   
         C         C         1.0       0.7345831523455331  0.5654538282085987  0.44450427497411465          1.0000   
         C         C         1.0       0.7318217468420959  0.5786656799987242  0.4281701611775721 1.0000   
         C         C         1.0       0.7104884570015749  0.5841571970068813  0.4274002034097056 1.0000   
         C         C         1.0       0.6930377250798451  0.5773130511054904  0.44392827683580666          1.0000   
         C         C         1.0       0.7565701618462524  0.6105479816655441  0.39597538016857936          1.0000   
         C         C         1.0       0.7624451941119608  0.610336474226      0.37538956995839246          1.0000   
         C         C         1.0       0.7736634003383512  0.6338314794072761  0.3640981686136825 1.0000   
         C         C         1.0       0.7797129390529991  0.6583995136362666  0.37222901988556883          1.0000   
         C         C         1.0       0.771564266183026   0.6586559465458406  0.3914781152990385 1.0000   
         C         C         1.0       0.7611365896356309  0.6357904648926247  0.40296315518743925          1.0000   
         C         C         1.0       0.7962502161214693  0.6174706738368225  0.43343770902296985          1.0000   
         C         C         1.0       0.823214532566173   0.62659334349543    0.43805444483077355          1.0000   
         C         C         1.0       0.8382006018827136  0.6195659120798479  0.4255602437293477 1.0000   
         C         C         1.0       0.828707874162695   0.6051418472196047  0.40851902284229813          1.0000   
         C         C         1.0       0.8012856952991836  0.5951952776183401  0.40428985691299757          1.0000   
         C         C         1.0       0.784055115157622   0.6001551810384568  0.41661552130311835          1.0000   
         H         H         1.0       0.7020186461414649  0.9526331232124112  0.3974024071700157 1.0000   
         H         H         1.0       0.643414020833387   0.9706456277570238  0.369949697354977  1.0000   
         H         H         1.0       0.6151652996539768  0.9505528260666736  0.4001088068194078 1.0000   
         H         H         1.0       0.6726915873787788  0.9336787755376349  0.4261119796117528 1.0000   
         H         H         1.0       0.7128187850378985  0.9991857731139375  0.324632190269468  1.0000   
         H         H         1.0       0.6910442892216656  0.993794959267884   0.29534981569246543          1.0000   
         H         H         1.0       0.6228910453061007  0.9230576273701572  0.31628874574951016          1.0000   
         H         H         1.0       0.6473956118081345  0.9282032168694594  0.3487547587721487 1.0000   
         H         H         1.0       0.7384030298348541  0.001672674611159941         0.393973371162369  1.0000   
         H         H         1.0       0.7632823740864269  0.5451307216190041  0.4146353395046067 1.0000   
         H         H         1.0       0.7082873582811756  0.5635877798090877  0.3818020927561025 1.0000   
         H         H         1.0       0.684167157738311   0.5172916694642811  0.36831617176605985          1.0000   
         H         H         1.0       0.7168368900598133  0.5452993436220964  0.4732552849479814 1.0000   
         H         H         1.0       0.750446945258441   0.5602632236554373  0.44602560883499753          1.0000   
         H         H         1.0       0.7063518046320147  0.5948683800040514  0.41504811121698965          1.0000   
         H         H         1.0       0.6744966863414347  0.5792324248787415  0.4430778379139823 1.0000   
         H         H         1.0       0.7590535807404635  0.5921991809851065  0.3683261501478028 1.0000   
         H         H         1.0       0.7787128858848236  0.6318213016892186  0.3482877502692503 1.0000   
         H         H         1.0       0.7759638961565206  0.6781440569580265  0.39872019215032856          1.0000   
         H         H         1.0       0.7580402122747846  0.6385762680256792  0.41911822283223366          1.0000   
         H         H         1.0       0.7841044042149622  0.6211486370348159  0.44366034702907736          1.0000   
         H         H         1.0       0.8334734653737896  0.6404554183036734  0.4505650501320001 1.0000   
         H         H         1.0       0.8408891958268847  0.5994926900497896  0.39938255666802286          1.0000   
         H         H         1.0       0.7953483657767908  0.5850069040075402  0.38962665673533814          1.0000   
         C         C         1.0       0.7795000963910701  0.9962907500203605  0.6794001798412643 1.0000   
         C         C         1.0       0.7594704932976465  0.98386025937855    0.6925726925892097 1.0000   
         C         C         1.0       0.7332778837228844  0.9775906102356291  0.6865390474027605 1.0000   
         C         C         1.0       0.7292181825378201  0.9904527098881837  0.6705532514156852 1.0000   
         C         C         1.0       0.7496076958530836  0.002283849011362582         0.6564203492320994 1.0000   
         C         C         1.0       0.7739439073402741  0.003633523439216191         0.6608718378404437 1.0000   
         H         H         1.0       0.7620110134059256  0.9773607380065383  0.7070138816754378 1.0000   
         H         H         1.0       0.717212180435911   0.9671833118453876  0.6965868523871186 1.0000   
         H         H         1.0       0.7477670411813641  0.5101747245339974  0.6540459931508146 1.0000   
         H         H         1.0       0.7893037889438704  0.5145482653968179  0.6655812307023752 1.0000   
         C         C         1.0       0.7138262922812051  0.5308759269692018  0.6629091510732659 1.0000   
         C         C         1.0       0.6945238908087731  0.5044963031716361  0.658869527285119  1.0000   
         C         C         1.0       0.6748738570218675  0.4986909972314361  0.6432363370130236 1.0000   
         C         C         1.0       0.6756789393014769  0.5193174974686483  0.632023423117901  1.0000   
         C         C         1.0       0.6965099202352364  0.5464345328406348  0.635272793224077  1.0000   
         C         C         1.0       0.7148506028858344  0.5528192952960311  0.6516562830605367 1.0000   
         C         C         1.0       0.700827698034641   0.9897873931407244  0.6668740093807974 1.0000   
         C         C         1.0       0.6878938075662732  0.9950637192155697  0.6865779126243721 1.0000   
         C         C         1.0       0.6594198527714877  0.9880139697333619  0.68594214032679   1.0000   
         C         C         1.0       0.6486759514663879  0.9933951262729842  0.7024486832345532 1.0000   
         C         C         1.0       0.65041520070148    0.48832434149184173           0.7237543671000598 1.0000   
         C         C         1.0       0.6785489719870347  0.501325594382279   0.7247582517577945 1.0000   
         C         C         1.0       0.6928714859436045  0.5004440152740675  0.7079059889321215 1.0000   
         C         C         1.0       0.6880852911525189  0.9565320868006725  0.6370434978451058 1.0000   
         C         C         1.0       0.6732619478829386  0.9319782357179562  0.6288906321378588 1.0000   
         C         C         1.0       0.6549676145164154  0.9082491021552188  0.639658887634242  1.0000   
         C         C         1.0       0.6516561659175403  0.9116469912784365  0.6600956579160954 1.0000   
         C         C         1.0       0.6650333943718979  0.9376520984728665  0.6686840797582382 1.0000   
         C         C         1.0       0.6835051316879762  0.9605613425722026  0.6571881422032734 1.0000   
         C         C         1.0       0.6399147238048251  0.8797458252005682  0.6271100099819832 1.0000   
         C         C         1.0       0.5972602233338484  0.9074673176642354  0.5865028266331966 1.0000   
         C         C         1.0       0.6180688600214821  0.9044063818929753  0.5797997369194514 1.0000   
         C         C         1.0       0.6306918291688682  0.8951500551263176  0.5914320811763136 1.0000   
         C         C         1.0       0.6226286263601878  0.8878756795095237  0.6115791186690498 1.0000   
         C         C         1.0       0.6006013103494986  0.8898680724554506  0.6179876763123827 1.0000   
         C         C         1.0       0.5881463240686668  0.8999918944199969  0.6059498231659826 1.0000   
         C         C         1.0       0.6214278946727358  0.8530484512107418  0.6404831905579391 1.0000   
         C         C         1.0       0.6322810133278453  0.8479787345964745  0.6580373527604445 1.0000   
         C         C         1.0       0.6179033053230774  0.8223788832038909  0.6674517985444476 1.0000   
         C         C         1.0       0.5946301456100631  0.8006176570794752  0.6582274714751072 1.0000   
         C         C         1.0       0.5840617451409917  0.8073423994623615  0.6419115661160965 1.0000   
         C         C         1.0       0.5960239570378957  0.8332987531317296  0.6340272699943674 1.0000   
         C         C         1.0       0.6528582718091422  0.8524043043585081  0.6020545514050425 1.0000   
         C         C         1.0       0.6681613030697805  0.8408613885174461  0.5966227373574176 1.0000   
         C         C         1.0       0.693577925237907   0.8498482382507576  0.6047161100637674 1.0000   
         C         C         1.0       0.704676800036907   0.8717033501476825  0.617500051087922  1.0000   
         C         C         1.0       0.686946841036535   0.881376258427439   0.6243380581474532 1.0000   
         C         C         1.0       0.6618357965498793  0.8734658016040941  0.6162945083152089 1.0000   
         H         H         1.0       0.7265436713760213  0.5356328441694348  0.6766891049147741 1.0000   
         H         H         1.0       0.6641917449873357  0.9931382123250921  0.635984895238762  1.0000   
         H         H         1.0       0.6614139136214714  0.5145562876653267  0.61929600384468   1.0000   
         H         H         1.0       0.7294936376943547  0.5736467726871454  0.6539119355223205 1.0000   
         H         H         1.0       0.6487822584245854  0.9809743649753557  0.6721152091811582 1.0000   
         H         H         1.0       0.6273533154655844  0.9864223683425583  0.702206277238089  1.0000   
         H         H         1.0       0.6883029716402338  0.5120356859033399  0.7380802542833922 1.0000   
         H         H         1.0       0.7140079786831424  0.5096911980526153  0.708752291146985  1.0000   
         H         H         1.0       0.7042092255886682  0.9729415642471679  0.6272819281990344 1.0000   
         H         H         1.0       0.6761727474260167  0.9296575026933152  0.6133961766639745 1.0000   
         H         H         1.0       0.6354055842313303  0.8948310400860822  0.6691913419452571 1.0000   
         H         H         1.0       0.6608120081259429  0.9411213644687051  0.6837526115040314 1.0000   
         H         H         1.0       0.6231449806320061  0.9048531220000418  0.5640550465647021 1.0000   
         H         H         1.0       0.6466505666950396  0.8930562047462728  0.5845248676063605 1.0000   
         H         H         1.0       0.5958377525779754  0.8831237654285079  0.6336789744048442 1.0000   
         H         H         1.0       0.5724849999380057  0.9039964460312717  0.6114202948169298 1.0000   
         H         H         1.0       0.6523229668374225  0.8614494491485425  0.6647450090090381 1.0000   
         H         H         1.0       0.6239668961612705  0.8196863369866371  0.6824621521585187 1.0000   
         H         H         1.0       0.5649949651968253  0.7916133325127618  0.6357412301377027 1.0000   
         H         H         1.0       0.5861813772757218  0.8371874620634542  0.621019266168939  1.0000   
         H         H         1.0       0.6333576916200829  0.8449891352260793  0.594924700303125  1.0000   
         H         H         1.0       0.6584760594906531  0.8237940960366237  0.5857996557538631 1.0000   
         H         H         1.0       0.7243883136795517  0.8772809254062442  0.6253801910100258 1.0000   
         H         H         1.0       0.6913906710071107  0.8940443882642902  0.6376673822833333 1.0000   
         C         C         1.0       0.7812009088002037  0.7088223081333552  0.5232657913886086 1.0000   
         C         C         1.0       0.7573546802183112  0.7066133658729592  0.5149291879575282 1.0000   
         C         C         1.0       0.7324926475262791  0.6888518378339104  0.5224498330507796 1.0000   
         C         C         1.0       0.7308597627306835  0.6737284586187814  0.5397833878397438 1.0000   
         C         C         1.0       0.7541754726717306  0.6816949306915712  0.5507853583171295 1.0000   
         C         C         1.0       0.7787790721784991  0.6964431753791702  0.5416496915398535 1.0000   
         H         H         1.0       0.7573556370016944  0.7133768859028721  0.4998668544559358 1.0000   
         H         H         1.0       0.7153298693581215  0.6891018561389824  0.5142350554616641 1.0000   
         H         H         1.0       0.7524502539722122  0.6725054325840707  0.5654969072983319 1.0000   
         H         H         1.0       0.7955520449139442  0.697862254177524   0.5513332501221174 1.0000   
         C         C         1.0       0.7200249502373689  0.6192586496468739  0.5612171892334262 1.0000   
         C         C         1.0       0.7008775802637602  0.6272682430270679  0.5626024783639243 1.0000   
         C         C         1.0       0.6799711001521406  0.6127931783288065  0.5758924514256902 1.0000   
         C         C         1.0       0.6790699261203365  0.592577652447184   0.5871738762571281 1.0000   
         C         C         1.0       0.6989496916769994  0.5854438657175064  0.585760115467503  1.0000   
         C         C         1.0       0.7193644967645089  0.5984401343580832  0.571569218625319  1.0000   
         C         C         1.0       0.7020993016314662  0.6482529630258367  0.5464181625971233 1.0000   
         C         C         1.0       0.6877283262525569  0.6273211776609023  0.5273423549095729 1.0000   
         C         C         1.0       0.6606986809986345  0.6081161298416589  0.5275308801764126 1.0000   
         C         C         1.0       0.6493015158023424  0.5864869653333296  0.5133225288004365 1.0000   
         C         C         1.0       0.6658856218500204  0.5856782294571239  0.4983665833547005 1.0000   
         C         C         1.0       0.6929301041313014  0.6054513778483009  0.49804477367088923          1.0000   
         C         C         1.0       0.7039600316193335  0.6258457772713817  0.5120298574440916 1.0000   
         C         C         1.0       0.6922586078538517  0.6750976122351396  0.5721873259730565 1.0000   
         C         C         1.0       0.679354372915661   0.6893179701640785  0.5788072068248116 1.0000   
         C         C         1.0       0.6594040099144245  0.6915458819202573  0.5666129162039719 1.0000   
         C         C         1.0       0.6534445111071355  0.6781157952695782  0.5480849509174596 1.0000   
         C         C         1.0       0.6670880100301527  0.6660580204460558  0.5409081368529812 1.0000   
         C         C         1.0       0.6871734719055348  0.6642697388219625  0.5529864565037034 1.0000   
         C         C         1.0       0.6418282937698808  0.7047710039177646  0.5754932098776078 1.0000   
         C         C         1.0       0.5832318108733999  0.6300030302806375  0.6059873163927585 1.0000   
         C         C         1.0       0.6048974577987197  0.6482342249984581  0.6173668303534166 1.0000   
         C         C         1.0       0.6228524952028325  0.6730308467109878  0.6094154239953478 1.0000   
         C         C         1.0       0.6212106027522536  0.678745696167304   0.5886682456928197 1.0000   
         C         C         1.0       0.5990770515552746  0.6601971753295964  0.5781482058099241 1.0000   
         C         C         1.0       0.5795583011910371  0.6357342445113244  0.5861228450102796 1.0000   
         C         C         1.0       0.62978543948786    0.7171627484723015  0.5587724460264247 1.0000   
         C         C         1.0       0.6425844991781758  0.7301254803819568  0.5404531444643769 1.0000   
         C         C         1.0       0.6333580401941912  0.7451606404204298  0.5301586384849145 1.0000   
         C         C         1.0       0.6092469033623793  0.744255218785982   0.5353461355809417 1.0000   
         C         C         1.0       0.5958139199283211  0.7302393687088153  0.5528814862779502 1.0000   
         C         C         1.0       0.6056696601464862  0.7162209848759706  0.5640390860509806 1.0000   
         C         C         1.0       0.6480869270524987  0.7376613590601993  0.605318490395386  1.0000   
         C         C         1.0       0.6644381155896304  0.7626716478998793  0.6150545309195194 1.0000   
         C         C         1.0       0.6891564156844017  0.7827730796133457  0.6080770883374921 1.0000   
         C         C         1.0       0.6993889751459909  0.7757656015462707  0.5914900313252507 1.0000   
         C         C         1.0       0.6852833086962917  0.7508811317301513  0.5824153125212042 1.0000   
         C         C         1.0       0.6596713670890462  0.7317758420272525  0.5880404715840398 1.0000   
         H         H         1.0       0.7347558692619005  0.6280958779961017  0.5496962870306403 1.0000   
         H         H         1.0       0.6633527244035314  0.6181115486511627  0.5757583294841412 1.0000   
         H         H         1.0       0.6613698970677522  0.5809295847752621  0.5966412895869291 1.0000   
         H         H         1.0       0.7353889469775274  0.5935670964473565  0.5704655144314179 1.0000   
         H         H         1.0       0.6469098077432266  0.6066086688282433  0.5402763043553865 1.0000   
         H         H         1.0       0.6273141558331098  0.5699339139393991  0.5146753874721803 1.0000   
         H         H         1.0       0.7078624908652139  0.6053790975064198  0.487654307168039  1.0000   
         H         H         1.0       0.7270017741824972  0.6398750095473921  0.5107804741086688 1.0000   
         H         H         1.0       0.7070909712307004  0.675074529874869   0.5812368431930173 1.0000   
         H         H         1.0       0.6850532817077827  0.6977292907279654  0.5940247766085855 1.0000   
         H         H         1.0       0.6378032526407835  0.678308728090774   0.538300123644389  1.0000   
         H         H         1.0       0.6603515823853039  0.6560179436737146  0.5256393870390388 1.0000   
         H         H         1.0       0.6064281559724404  0.6425858188430562  0.6327757247034684 1.0000   
         H         H         1.0       0.6398157722145137  0.6855755737274009  0.6185226225517017 1.0000   
         H         H         1.0       0.5989094518697133  0.6625402220303931  0.5615482371715595 1.0000   
         H         H         1.0       0.5613304218103731  0.6240179264180239  0.5769851816912519 1.0000   
         H         H         1.0       0.6607450774325458  0.7291999574369196  0.5358473579084897 1.0000   
         H         H         1.0       0.642607494940028   0.7563236238785149  0.51647206690476   1.0000   
         H         H         1.0       0.5762197916622285  0.7284031530307177  0.5573277176620975 1.0000   
         H         H         1.0       0.5924168940252392  0.7042583411166363  0.577503321538506  1.0000   
         H         H         1.0       0.6258716956341313  0.7229837118431719  0.608110183080307  1.0000   
         H         H         1.0       0.6578290732034484  0.7702440296879295  0.6278903370952816 1.0000   
         H         H         1.0       0.7189429971194177  0.7909324410202604  0.584484408338893  1.0000   
         H         H         1.0       0.6936834247847535  0.7477957393171832  0.5696978848647425 1.0000   
         C         C         1.0       0.7004738176277484  0.5702289432782682  0.6227161438957819 1.0000   
         C         C         1.0       0.7043524786264155  0.5665460240617142  0.5996934230004646 1.0000   
         H         H         1.0       0.6826884016451252  0.5728849285506916  0.6272137748510378 1.0000   
         H         H         1.0       0.7168715339686073  0.590070395216302   0.6275569577129668 1.0000   
         H         H         1.0       0.6902613878405331  0.5463847417044101  0.5938885332174297 1.0000   
         H         H         1.0       0.7256467847867148  0.5691314029615869  0.597414048725286  1.0000   
         C         C         1.0       0.7041963448910702  0.8116381093238851  0.6155540556370805 1.0000   
         C         C         1.0       0.7099817668098215  0.8347590610241175  0.599665044810103  1.0000   
         H         H         1.0       0.6952909341215763  0.8140872285130314  0.6289115707101177 1.0000   
         H         H         1.0       0.7230903600663837  0.8144757866297924  0.6221890420123353 1.0000   
         H         H         1.0       0.7041745973849937  0.8224422420293276  0.5846899114588405 1.0000   
         H         H         1.0       0.7318070943255737  0.8493914242363921  0.598447917993809  1.0000   
         C         C         1.0       0.6734658818241679  0.5499848358192044  0.47696276178803365          1.0000   
         C         C         1.0       0.6555426070230335  0.5629170015536449  0.4829951599086686 1.0000   
         H         H         1.0       0.6836059154610111  0.5496007652019439  0.4912161690405102 1.0000   
         H         H         1.0       0.6573377283493971  0.5280171380838873  0.47259501688511113          1.0000   
         H         H         1.0       0.6353414519599202  0.5449044752171984  0.4865017697888791 1.0000   
         H         H         1.0       0.652343874614931   0.5727098421730925  0.4699328083508058 1.0000   
         C         C         1.0       0.5526825035116976  0.8909944507684963  0.5666278720982693 1.0000   
         C         C         1.0       0.5810899394358301  0.9163285510649521  0.5728749674060777 1.0000   
         H         H         1.0       0.537649364484471   0.8981824007373719  0.5667135988981687 1.0000   
         H         H         1.0       0.5449557851611895  0.8757626351319038  0.579385528087315  1.0000   
         H         H         1.0       0.5939892599884758  0.9265381538281163  0.5595252946251287 1.0000   
         H         H         1.0       0.5780594159987731  0.9326764894311326  0.57868738365772   1.0000   
         C         C         1.0       0.602576904121226   0.8989675339439     0.4270129354515173 1.0000   
         C         C         1.0       0.622115433944273   0.927685188244305   0.43215261320108117          1.0000   
         H         H         1.0       0.614320117983015   0.888306745169793   0.4213164665457275 1.0000   
         H         H         1.0       0.5889458370105686  0.8980397889816853  0.41486378030433335          1.0000   
         H         H         1.0       0.6105601305405189  0.9385666719775976  0.43569663431264405          1.0000   
         H         H         1.0       0.6325336402455418  0.9272492252740222  0.44681626384965395          1.0000   
         C         C         1.0       0.8910292206506356  0.6499410825843192  0.42218278455871866          1.0000   
         C         C         1.0       0.8668792674511604  0.624931056957471   0.4327984105969169 1.0000   
         H         H         1.0       0.887640750494225   0.6512460523674934  0.4062568048367753 1.0000   
         H         H         1.0       0.9080773999723735  0.6466747898556097  0.42304117039721106          1.0000   
         H         H         1.0       0.869113523763616   0.6277777834575117  0.4498663053311103 1.0000   
         H         H         1.0       0.8689505191356987  0.6076596875375367  0.43091642692027626          1.0000   
         C         C         1.0       0.5703518829431249  0.7435819309352694  0.5142244414152206 1.0000   
         C         C         1.0       0.5985025218307333  0.7616667091783821  0.5241297704270073 1.0000   
         H         H         1.0       0.5706861612195664  0.7285550546984124  0.5054423495165318 1.0000   
         H         H         1.0       0.5589314697051198  0.7300742173808337  0.5265020819395718 1.0000   
         H         H         1.0       0.5974370672346193  0.7749680613218687  0.536044245462397  1.0000   
         H         H         1.0       0.6130124090562141  0.7754736378735291  0.5137560394652286 1.0000   
         C         C         1.0       0.8097978815245673  0.7242807980287356  0.514773388982247  1.0000   
         C         C         1.0       0.8106684737524934  0.7089236457381564  0.496192062399369  1.0000   
         H         H         1.0       0.8257240206748533  0.7278958455075826  0.5267836469823589 1.0000   
         H         H         1.0       0.814115021010486   0.745440797526613   0.509996959150135  1.0000   
         H         H         1.0       0.7947858091997781  0.7065738317110715  0.4855810796146158 1.0000   
         H         H         1.0       0.803734347131245   0.6865925595492618  0.5008416006975599 1.0000   
         C         C         1.0       0.5347801923819132  0.597733841299834   0.6232946299999763 1.0000   
         C         C         1.0       0.5632089059713474  0.6030984836144395  0.6163427841997915 1.0000   
         H         H         1.0       0.5217193933896886  0.5742914494218084  0.6235727198385489 1.0000   
         H         H         1.0       0.5265175507357827  0.6033366981194707  0.6093956862919195 1.0000   
         H         H         1.0       0.5590005987217245  0.5858650700030928  0.6046319863246848 1.0000   
         H         H         1.0       0.5721654226122482  0.5985224241815181  0.6293465441944693 1.0000   
         C         C         1.0       0.5541263183056747  0.7634140922097387  0.6794764753512974 1.0000   
         C         C         1.0       0.5810924417212234  0.7736223865537045  0.6678847561784225 1.0000   
         H         H         1.0       0.5395250891764837  0.7654997823951035  0.6692391682648867 1.0000   
         H         H         1.0       0.5549387309602933  0.7763233145487404  0.6921167792225611 1.0000   
         H         H         1.0       0.5786707411007583  0.7565507687787238  0.6579152696770416 1.0000   
         H         H         1.0       0.5955429363223728  0.7738176254943682  0.6798600985545316 1.0000   
         C         C         1.0       0.8112694483210393  0.522272203399598   0.7163206441913366 1.0000   
         C         C         1.0       0.8010644914079289  0.49871898873469755           0.7005279228874239 1.0000   
         H         H         1.0       0.800773025991058   0.5132573041772328  0.7303280211512714 1.0000   
         H         H         1.0       0.8051723076898902  0.5382061566190368  0.7113120671093011 1.0000   
         H         H         1.0       0.81475420937251    0.5046765266882639  0.6869873247990799 1.0000   
         H         H         1.0       0.8107945578717021  0.9988029825013103  0.7019205385854531 1.0000   
         C         C         1.0       0.6345373168936894  0.49257589242636635           0.740983841730935  1.0000   
         C         C         1.0       0.6402302409908145  0.5204899748021407  0.7442883886092232 1.0000   
         H         H         1.0       0.6116421104929587  0.4779138760019179  0.7381770172982508 1.0000   
         H         H         1.0       0.6393036790823954  0.48487128916287725           0.7550549964554456 1.0000   
         H         H         1.0       0.6405589373517906  0.5285248567733714  0.7291603416778413 1.0000   
         H         H         1.0       0.6223336399758532  0.5197135726586462  0.7522189604597317 1.0000   
         C         C         1.0       0.6033670835033846  0.6398812572033192  0.7544900233932399 1.0000   
         C         C         1.0       0.5936476775460325  0.6332352966201292  0.7771542357568567 1.0000   
         H         H         1.0       0.6059107171532269  0.623014785050537   0.748849255488881  1.0000   
         H         H         1.0       0.6234329861228716  0.6578888670051877  0.7522729602390954 1.0000   
         H         H         1.0       0.5864046935528     0.6475086468182537  0.7828164810645198 1.0000   
         H         H         1.0       0.5761856013065118  0.6112983872335678  0.7792443183297405 1.0000   
         C         C         1.0       0.8701976162900861  0.6531809253952637  0.7774736557114529 1.0000   
         C         C         1.0       0.851157367821688   0.6555473924329397  0.7616822108920034 1.0000   
         H         H         1.0       0.8578801218365351  0.6430330522102682  0.7909967388834542 1.0000   
         H         H         1.0       0.8871871285117474  0.6744553075424085  0.7827445620293956 1.0000   
         H         H         1.0       0.8526321696696421  0.6492251926509311  0.746944366529992  1.0000   
         H         H         1.0       0.8607408170969145  0.6782890219064205  0.7592026799701047 1.0000   
         C         C         1.0       0.8751442968867903  0.896412820434503   0.07939963865035946          1.0000   
         C         C         1.0       0.883550530970747   0.9249099317215502  0.0732577432673155 1.0000   
         H         H         1.0       0.8541255517930538  0.8875676031268385  0.08584387892197302          1.0000   
         H         H         1.0       0.887184190112812   0.897887217124907   0.09260219440599346          1.0000   
         H         H         1.0       0.9060442340645296  0.9370008805574424  0.0692322543035199 1.0000   
         H         H         1.0       0.8704706506376058  0.925357501098426   0.0602547180271285 1.0000   
         C         C         1.0       0.8409247850223396  0.6445527497957633  0.08304315515607008          1.0000   
         C         C         1.0       0.8457721114014645  0.6198733455000647  0.07868208474364505          1.0000   
         H         H         1.0       0.8314723340532963  0.6400641718542581  0.09761181531619839          1.0000   
         H         H         1.0       0.8218360136254562  0.6407353791317036  0.07419457293296387          1.0000   
         H         H         1.0       0.8528020833046044  0.6213643696623314  0.06342144201902979          1.0000   
         H         H         1.0       0.8252018988957486  0.5990368750010816  0.07763214629162776          1.0000   
         C         C         1.0       0.5103930056241749  0.8426302798231273  0.14164630444039925          1.0000   
         C         C         1.0       0.9866330327280485  0.8391347454401115  0.13950139749738802          1.0000   
         H         H         1.0       0.5232611848122205  0.8647072582903976  0.1409766635747956 1.0000   
         H         H         1.0       0.5192817627451687  0.8365564535749687  0.12926460604101708          1.0000   
         H         H         1.0       0.9905267297452277  0.8593405884868331  0.13793319334450838          1.0000   
         H         H         1.0       0.9768228537223697  0.8345134717393409  0.15485456479844267          1.0000   
         C         C         1.0       0.48616141572718374           0.6804292651772107 0.19240849306133104          1.0000   
         C         C         1.0       0.9592949608758254  0.6729979543043336  0.18399464205389598          1.0000   
         H         H         1.0       0.5008038323487463  0.6745053426192451  0.18622898438272803          1.0000   
         H         H         1.0       0.4754602166158835  0.6663993234729053  0.20541965258582096          1.0000   
         H         H         1.0       0.9652798097097184  0.6918712899063739  0.17366379695781778          1.0000   
         H         H         1.0       0.9442448145535403  0.6750615284078603  0.19357362966442243          1.0000   
         C         C         1.0       0.7387217319825156  0.8772005612003894  0.18592934765032973          1.0000   
         C         C         1.0       0.7419117039799933  0.9012226399228562  0.17155460158595848          1.0000   
         H         H         1.0       0.7579595230184873  0.8842100092428086  0.19495136415743183          1.0000   
         H         H         1.0       0.7380213541379966  0.8610653744894319  0.17633798349991792          1.0000   
         H         H         1.0       0.7277366521436658  0.8947846825178845  0.15815921990138787          1.0000   
         H         H         1.0       0.7380307639952007  0.9172191238919747  0.17896119802957625          1.0000   
         C         C         1.0       0.6368362729322058  0.9534391964015198  0.28340346047597387          1.0000   
         C         C         1.0       0.6506737601193111  0.9487706062245135  0.2651504427016454 1.0000   
         H         H         1.0       0.6323152359305374  0.9713885840477121  0.27966770762502663          1.0000   
         H         H         1.0       0.615069304737313   0.9355582824864838  0.28440113806843786          1.0000   
         H         H         1.0       0.6728296549783065  0.9648417506152689  0.26778769892064136          1.0000   
         H         H         1.0       0.6444248858077808  0.9559326770499348  0.2513379737755225 1.0000   
         C         C         1.0       0.9409188830974416  0.8636194418200129  0.4060450845406688 1.0000   
         C         C         1.0       0.963139966352908   0.8572811372753801  0.41336060190516755          1.0000   
         H         H         1.0       0.9274749819384508  0.8606315652945331  0.4192955278559136 1.0000   
         H         H         1.0       0.9502374538154693  0.8863933163889475  0.40426396662787517          1.0000   
         H         H         1.0       0.9765859744433841  0.874178677739626   0.4228291705233443 1.0000   
         H         H         1.0       0.9765436030755442  0.8586392519698305  0.4010997436761104 1.0000   
         C         C         1.0       0.9000573373911491  0.944749946498858   0.22042588300976157          1.0000   
         C         C         1.0       0.8967163258296126  0.9166966210688499  0.22747820388719364          1.0000   
         H         H         1.0       0.8980902205582635  0.9546109436525203  0.2344838826965803 1.0000   
         H         H         1.0       0.921837897860651   0.9562625013746525  0.21765366431357294          1.0000   
         H         H         1.0       0.916243693014008   0.9191879180270953  0.23372581772979373          1.0000   
         H         H         1.0       0.8928229089667968  0.9021413235169906  0.21439182854536667          1.0000   
         C         C         1.0       0.9691088767960301  0.8193046266330911  0.2841501400672169 1.0000   
         C         C         1.0       0.9675564165919958  0.8248431342651997  0.26168826216470464          1.0000   
         H         H         1.0       0.9887504859165417  0.8380829894956886  0.28897600584157235          1.0000   
         H         H         1.0       0.9697362433236583  0.8002688891353886  0.28773962138322834          1.0000   
         H         H         1.0       0.9464697205464911  0.8128895338199869  0.2563795748576871 1.0000   
         H         H         1.0       0.9718423276232607  0.8459408164281738  0.26048198362664343          1.0000   
         C         C         1.0       0.7018922036748799  0.7729947630093441  0.27485368100781193          1.0000   
         C         C         1.0       0.6815238699781658  0.7793263786082404  0.28747887886437035          1.0000   
         H         H         1.0       0.6953975942011564  0.7715664747202948  0.2599103147185615 1.0000   
         H         H         1.0       0.6975090256773175  0.751188006474772   0.2780469623307611 1.0000   
         H         H         1.0       0.6647739689041171  0.7589659558738123  0.2914533585824316 1.0000   
         H         H         1.0       0.6884956931051395  0.7873287664650199  0.30221992267033265          1.0000   
         C         C         1.0       0.7856835579819827  0.7015382070715249  0.3538964342776727 1.0000   
         C         C         1.0       0.7980410974222195  0.6844227341717045  0.36195340277295407          1.0000   
         H         H         1.0       0.7716092438558712  0.6915223388599884  0.341099127648705  1.0000   
         H         H         1.0       0.7728092807351943  0.703617250923188   0.365956742960484  1.0000   
         H         H         1.0       0.8149722298246157  0.6966172408119813  0.37286064605960606          1.0000   
         H         H         1.0       0.8090452690836105  0.6824288755234508  0.3498858746249921 1.0000   
         C         C         1.0       0.784033295811392   0.929862612457149   0.33387990073601553          1.0000   
         C         C         1.0       0.75547474511134    0.9227238747492708  0.32707406204442807          1.0000   
         H         H         1.0       0.7829379999009752  0.9259763479914443  0.3510534089430993 1.0000   
         H         H         1.0       0.7995819053047271  0.9518469100763053  0.33160871959786664          1.0000   
         H         H         1.0       0.7571956347760036  0.9307446350232637  0.3109867927540634 1.0000   
         H         H         1.0       0.741031927191306   0.9004826821262986  0.3258220081020411 1.0000   
         C         C         1.0       0.9496412750960614  0.5190955479990398  0.8142556835051741 1.0000   
         C         C         1.0       0.9700626579213586  0.548804054877736   0.8076018670860472 1.0000   
         H         H         1.0       0.9497638103066287  0.9923575017111167  0.797357999578769  1.0000   
         H         H         1.0       0.9256273910042909  0.9913874747102331  0.783411930043732  1.0000   
         H         H         1.0       0.9803342036096954  0.5628131804698189  0.8200664107928389 1.0000   
         H         H         1.0       0.9875199648830963  0.5514290880333844  0.7990278881536704 1.0000   
         C         C         1.0       0.787631198786614   0.5344987297857037  0.8396572920454639 1.0000   
         C         C         1.0       0.7723216462843148  0.5061518156572672  0.8508918216409512 1.0000   
         H         H         1.0       0.8045716424233396  0.5366805299384181  0.8299985652979723 1.0000   
         H         H         1.0       0.7971502999025936  0.5466812732564265  0.8518509560759552 1.0000   
         H         H         1.0       0.7593500579155865  0.5082220273509337  0.8619170259973972 1.0000   
         H         H         1.0       0.7694395584224843  0.004301985316421675         0.8376204895603035 1.0000   
         C         C         1.0       0.7514052079695049  0.7749186860248666  0.8578024805431993 1.0000   
         C         C         1.0       0.7690193256406471  0.7668120274377453  0.8457730566031443 1.0000   
         H         H         1.0       0.7345371259801171  0.7745915490344772  0.8485898708876417 1.0000   
         H         H         1.0       0.7414200277004185  0.7591729886656895  0.8697903811747465 1.0000   
         H         H         1.0       0.7858116137235743  0.768708297127163   0.8564434356603137 1.0000   
         H         H         1.0       0.7802586654399479  0.7817467577013413  0.8340292088369414 1.0000   
         C         C         1.0       0.9143488425003241  0.8734433237057548  0.9533215732279091 1.0000   
         C         C         1.0       0.907946841095092   0.896723390389812   0.9497213939476726 1.0000   
         H         H         1.0       0.935530817693115   0.8833841727972019  0.9551401868437097 1.0000   
         H         H         1.0       0.9109476749090192  0.8624821358730224  0.9380898818255792 1.0000   
         H         H         1.0       0.9258149386973878  0.9129419629493789  0.9417349590942906 1.0000   
         H         H         1.0       0.907321993166661   0.9063445498454364  0.9635281155549489 1.0000   
         C         C         1.0       0.9847758687785456  0.5625800693790995  0.07533059862466533          1.0000   
         C         C         1.0       0.5189961026897869  0.5873061478689996  0.06792973737159366          1.0000   
         H         H         1.0       0.9851765382505999  0.5454944006750856  0.08300055313669577          1.0000   
         H         H         1.0       0.9756123057554461  0.5542523062213477  0.060302354027761816         1.0000   
         H         H         1.0       0.5286907468630617  0.598341823780525   0.08200193637837679          1.0000   
         H         H         1.0       0.5296642814208246  0.5758620167395018  0.06339127153024343          1.0000   
         C         C         1.0       0.611684630909003   0.6176232812826241  0.9167689151773455 1.0000   
         C         C         1.0       0.6364740879085748  0.6155543413158425  0.9096773671510282 1.0000   
         H         H         1.0       0.6010140634825056  0.6014565976873057  0.9284452180930217 1.0000   
         H         H         1.0       0.5957318502159967  0.612107490468096   0.9046789886760914 1.0000   
         H         H         1.0       0.6334746863123187  0.5943274455049474  0.9131872872409613 1.0000   
         H         H         1.0       0.6515653184059489  0.6287985874499272  0.9208360211143123 1.0000   
         C         C         1.0       0.9413960980777433  0.5809875791504767  0.9346497616911545 1.0000   
         C         C         1.0       0.9391588725219577  0.5799803540450889  0.9577831555155158 1.0000   
         H         H         1.0       0.9439317322606023  0.6008442520201916  0.9291941799345816 1.0000   
         H         H         1.0       0.9597320909089283  0.5805708150840405  0.9302950819065784 1.0000   
         H         H         1.0       0.9354200902973342  0.5603073357450256  0.96234649223798   1.0000   
         H         H         1.0       0.9182210540826747  0.577386689787096   0.9606701695195755 1.0000   
         C         C         1.0       0.6792768532877791  0.8286444259064083  0.9219253650327275 1.0000   
         C         C         1.0       0.7030170139906058  0.8504209855142195  0.9347282013255062 1.0000   
         H         H         1.0       0.6848094551367304  0.8280802497743726  0.9056218169504288 1.0000   
         H         H         1.0       0.6646290071120082  0.8368330050326317  0.9204069490935195 1.0000   
         H         H         1.0       0.7022632911429321  0.8427931472394945  0.9502815562447001 1.0000   
         H         H         1.0       0.6989453073525268  0.86767811353479    0.9369524261073341 1.0000   
         C         C         1.0       0.5325823171984561  0.7795560126235981  0.038060020285700755         1.0000   
         C         C         1.0       0.5338727582511343  0.7682010622928724  0.017536174658259476         1.0000   
         H         H         1.0       0.5452740930478356  0.773440826887182   0.04833996250800873          1.0000   
         H         H         1.0       0.5458074918937567  0.8021763833596054  0.03865024399327514          1.0000   
         H         H         1.0       0.5538064991002897  0.7809823880436049  0.011281630460173147         1.0000   
         H         H         1.0       0.5196787956874013  0.7698395244710997  0.007201187580099139         1.0000   
         C         C         1.0       0.7458302587596194  0.7622684810699177  0.0014466296900873463        1.0000   
         C         C         1.0       0.7501284192130692  0.7385386362115851  0.009122027497663459         1.0000   
         H         H         1.0       0.7486201713521726  0.7770317267066019  0.012591683642269135         1.0000   
         H         H         1.0       0.7600553991465512  0.7742755852943953  0.9895131257555796 1.0000   
         H         H         1.0       0.7457348783019313  0.7241992676185722  0.9966432356784815 1.0000   
         H         H         1.0       0.7369240818629657  0.7274804311447854  0.021563610409241457         1.0000

