data_0
_chemical_formula_sum                   'C2400 H1920'
_cell_length_a                          46.608350217281284
_cell_length_b                          49.18498046564702
_cell_length_c                          54.42404816282463
_cell_angle_alpha                       89.6440963927586
_cell_angle_beta                        90.7156985550524
_cell_angle_gamma                       124.62445696366086
_space_group_name_H-M_alt               'P 1'
_space_group_IT_number                  1
loop_
  _space_group_symop_operation_xyz
         'x, y, z' 
loop_
  _atom_site_type_symbol
  _atom_site_label
  _atom_site_symmetry_multiplicity
  _atom_site_fract_x
  _atom_site_fract_y
  _atom_site_fract_z
  _atom_site_occupancy
         C         C         1.0       0.09319172027329145           0.3512878545016809 0.15529204456308354          1.0000   
         C         C         1.0       0.08092503870776173           0.31977777529664225          0.15955757350192928          1.0000   
         C         C         1.0       0.05108774556865248           0.2953517225768109 0.14780663031604907          1.0000   
         C         C         1.0       0.03341021943334278           0.3025928952392064 0.1313338096631894 1.0000   
         C         C         1.0       0.04645825416341051           0.33556382042029953          0.12639420630898512          1.0000   
         C         C         1.0       0.07500555186393049           0.35866706060712783          0.13908960812095406          1.0000   
         H         H         1.0       0.09411668488229098           0.31364991673927317          0.1725614410257059 1.0000   
         H         H         1.0       0.04106222120298589           0.2692000770202523 0.1506401931204485 1.0000   
         H         H         1.0       0.0348802908545131  0.34165105873262563           0.11335213973115765          1.0000   
         H         H         1.0       0.08513721693772128           0.3835157702155339 0.13470071008784346          1.0000   
         C         C         1.0       0.5173444993805713  0.20659086184393935           0.04187268460245419          1.0000   
         C         C         1.0       0.981450635958029   0.2863206274824385  0.09818682586416805          1.0000   
         C         C         1.0       0.9838390877047917  0.29094956471079225           0.0726019355067602 1.0000   
         C         C         1.0       0.5691275082556155  0.21109588650699407           0.013122323970405692         1.0000   
         C         C         1.0       0.5477636856255075  0.2183772542416729  0.002897638957035209         1.0000   
         C         C         1.0       0.5207038973833731  0.21398116034007889           0.01708926641930164          1.0000   
         C         C         1.0       0.0026089531682216816         0.27412614104189637          0.11349779433198798          1.0000   
         C         C         1.0       0.9708871571936681  0.24253245688226124           0.12733583132267115          1.0000   
         C         C         1.0       0.9471899316207412  0.21250165012663585           0.11516423020909024          1.0000   
         C         C         1.0       0.9201497155040371  0.18547759628271734           0.128014030846754  1.0000   
         C         C         1.0       0.9178370339275138  0.18832960310170777           0.15268280479394117          1.0000   
         C         C         1.0       0.9398311356648286  0.2177301164811442  0.16444765936136677          1.0000   
         C         C         1.0       0.9663843013404758  0.2439582219106036  0.15165054759006127          1.0000   
         C         C         1.0       0.04969820289846581           0.28700459836738984          0.08104231890016766          1.0000   
         C         C         1.0       0.07159187841289681           0.2802777248697566 0.069767896786056  1.0000   
         C         C         1.0       0.07380328130259996           0.2547424445666996 0.07712113523528452          1.0000   
         C         C         1.0       0.04887894831841034           0.23227923271583678          0.09349290314996161          1.0000   
         C         C         1.0       0.02732616911168691           0.23863670695381436          0.10526263149185516          1.0000   
         C         C         1.0       0.026097232343074695          0.2651760061207003 0.09892018920828849          1.0000   
         C         C         1.0       0.10213072063148694           0.24891242779643427          0.0657736176804471 1.0000   
         C         C         1.0       0.04269958124972879           0.17620525697674932          0.00975781908050899          1.0000   
         C         C         1.0       0.05311792120011919           0.20756298416376842          0.006932490719733453         1.0000   
         C         C         1.0       0.06946453745040422           0.22879197174624652          0.02553057331934161          1.0000   
         C         C         1.0       0.08007429517445014           0.22064488989422767          0.047116544212599365         1.0000   
         C         C         1.0       0.06470962691764313           0.18731333109584847          0.05097262531771429          1.0000   
         C         C         1.0       0.04918536023339918           0.16575028401094538          0.031339447338377235         1.0000   
         C         C         1.0       0.12405012606681996           0.2400317154438385 0.08454551225393625          1.0000   
         C         C         1.0       0.12586074376384293           0.2461498955482108 0.10973227745438185          1.0000   
         C         C         1.0       0.15000310432122035           0.2457286080048528 0.12446025641259567          1.0000   
         C         C         1.0       0.17046863533651027           0.23651274935710154          0.11472293090780304          1.0000   
         C         C         1.0       0.1674544920864307  0.22916848984226423           0.09027097417004248          1.0000   
         C         C         1.0       0.14494190433258175           0.2310856995741514 0.07499753088353733          1.0000   
         C         C         1.0       0.1516403299275231  0.2847541328783105  0.03432566456025765          1.0000   
         C         C         1.0       0.18404591458093378           0.3138930152505606 0.028507228519374372         1.0000   
         C         C         1.0       0.19608715691131015           0.3435992786772517 0.039454566781536915         1.0000   
         C         C         1.0       0.1813022241982304  0.3422145353691579  0.06114096212651399          1.0000   
         C         C         1.0       0.15222282947234456           0.31272565255312623          0.06960060749752173          1.0000   
         C         C         1.0       0.13453208125280328           0.2839555422671205 0.055403576273706845         1.0000   
         H         H         1.0       0.49858501114952036           0.20850769482099088          0.052716003123291166         1.0000   
         H         H         1.0       0.9977536303003297  0.285631272177348   0.06151545277450654          1.0000   
         H         H         1.0       0.9590610636908071  0.29554306571512257           0.040601368854332964         1.0000   
         H         H         1.0       0.5041069672004681  0.22044607772273342           0.00809318503165568          1.0000   
         H         H         1.0       0.9485224359667414  0.21014010543430636           0.09572601996435326          1.0000   
         H         H         1.0       0.9033719455605674  0.16212701566219972           0.11890893906158428          1.0000   
         H         H         1.0       0.45349965174130025           0.13318785610487183          0.12120943490179444          1.0000   
         H         H         1.0       0.48521007391296395           0.18009508406401142          0.09634124145055246          1.0000   
         H         H         1.0       0.05321115352559254           0.3107284958077652 0.07651562588987448          1.0000   
         H         H         1.0       0.08906842098946573           0.29789459958865316          0.055981093273012705         1.0000   
         H         H         1.0       0.0464292745550339  0.2099872760429151  0.09970046059653358          1.0000   
         H         H         1.0       0.01158657731988534           0.22099691530380108          0.12085302626786873          1.0000   
         H         H         1.0       0.04686316469971114           0.21382729119957147          0.9896424497005689 1.0000   
         H         H         1.0       0.07637672210515711           0.2535876667294465 0.022565204785721438         1.0000   
         H         H         1.0       0.07567086725870796           0.1809489853674436 0.0655481009705059 1.0000   
         H         H         1.0       0.04433300573759991           0.14130770807984788          0.032747340185203644         1.0000   
         H         H         1.0       0.10972985354503324           0.25218241112061485          0.11764560859653943          1.0000   
         H         H         1.0       0.15379520241114983           0.2538157132150015 0.14361094798841087          1.0000   
         H         H         1.0       0.18189238733416152           0.2224690461410946 0.08077523708149004          1.0000   
         H         H         1.0       0.14527187083614357           0.22833344197707842          0.05575794180025273          1.0000   
         H         H         1.0       0.14343119471059726           0.2645958946978236 0.0230463528781093 1.0000   
         H         H         1.0       0.1994022853933421  0.3149956679898131  0.011811512086304043         1.0000   
         H         H         1.0       0.19303747138256502           0.36313540653533755          0.07263483307411911          1.0000   
         H         H         1.0       0.1423201958891281  0.31448220656547626           0.08610532896638734          1.0000   
         C         C         1.0       0.3450831690925882  0.1206339156317546  0.011517694182772598         1.0000   
         C         C         1.0       0.48807886707617415           0.6625370441220801 0.945219957206421  1.0000   
         C         C         1.0       0.49092030661615627           0.6433588120146921 0.9617506827128437 1.0000   
         C         C         1.0       0.46490614034520394           0.6102136724198939 0.9627759940742732 1.0000   
         C         C         1.0       0.4005488328031778  0.12994063339212766           0.0035674057092820455        1.0000   
         C         C         1.0       0.38121777880073493           0.13916510147586564          0.014932439244738749         1.0000   
         H         H         1.0       0.5115542284735587  0.6886756266642361  0.9443614284431852 1.0000   
         H         H         1.0       0.5102886330796728  0.6557130321129003  0.9764032050995374 1.0000   
         H         H         1.0       0.428461051385124   0.14293744279158077           0.006191106760166765         1.0000   
         H         H         1.0       0.39516950292532116           0.15823207580455864          0.028194831236067364         1.0000   
         C         C         1.0       0.44751222493354487           0.159213876342159  0.957590498129258  1.0000   
         C         C         1.0       0.44755872773204997           0.13220191957010075          0.9631214825665309 1.0000   
         C         C         1.0       0.4773104332491532  0.13341522387817345           0.9585931195059968 1.0000   
         C         C         1.0       0.5077651596236529  0.16282542113645304           0.9536968482970714 1.0000   
         C         C         1.0       0.5090322207398358  0.19142599148768893           0.9525886805239626 1.0000   
         C         C         1.0       0.4782254906929939  0.18877601132290184           0.9537810077475108 1.0000   
         C         C         1.0       0.46521722483509276           0.5880247665366056 0.983999444138718  1.0000   
         C         C         1.0       0.5041818925426261  0.5985980611771843  0.9867556953993017 1.0000   
         C         C         1.0       0.5165118246198783  0.5827278980802263  0.972893326907115  1.0000   
         C         C         1.0       0.5500079695324407  0.5914513944971508  0.974701328938492  1.0000   
         C         C         1.0       0.3778200539739004  0.05490542901451435           0.8993117489815652 1.0000   
         C         C         1.0       0.3665245402254491  0.07369258098513032           0.9085901115896169 1.0000   
         C         C         1.0       0.3791980343393273  0.08877440112188184           0.9312861735454464 1.0000   
         C         C         1.0       0.42851338791199184           0.5256590834111176 0.9969922899393966 1.0000   
         C         C         1.0       0.40904798822301436           0.49292295372091993          0.9927172314424637 1.0000   
         C         C         1.0       0.3992802161922061  0.4802017721126518  0.9687263722027116 1.0000   
         C         C         1.0       0.4154852841722354  0.503204136536083   0.9495212964453125 1.0000   
         C         C         1.0       0.43857780570569094           0.5365835107178448 0.9544457798091837 1.0000   
         C         C         1.0       0.4426873047721269  0.5491341597306303  0.9785193253178606 1.0000   
         C         C         1.0       0.3718903824399695  0.44141221658216406           0.9663241558125829 1.0000   
         C         C         1.0       0.43075376633273865           0.4000806568961325 0.9716620577859397 1.0000   
         C         C         1.0       0.4247935116288452  0.41234430594081556           0.9923431188579402 1.0000   
         C         C         1.0       0.40850014213335234           0.4278158402597464 0.9902950557797915 1.0000   
         C         C         1.0       0.397946812003218   0.4311045751192031  0.967695541074924  1.0000   
         C         C         1.0       0.4090305417052655  0.4249515523537985  0.9462004388066589 1.0000   
         C         C         1.0       0.423530939616388   0.4075498747447909  0.9489818724481348 1.0000   
         C         C         1.0       0.3446510709381424  0.42790239574359173           0.9437529251070851 1.0000   
         C         C         1.0       0.33042842663099753           0.44551381469825807          0.9369222905778891 1.0000   
         C         C         1.0       0.30382204237056465           0.4330233422639154 0.920048927020254  1.0000   
         C         C         1.0       0.28738160891863523           0.40092954124356966          0.9125918982566004 1.0000   
         C         C         1.0       0.29971817982199045           0.3833255789607445 0.9195303109285553 1.0000   
         C         C         1.0       0.32716329128196164           0.3954332185627425 0.9355866829283389 1.0000   
         C         C         1.0       0.3274349356449703  0.39139175995340997           0.995110968966531  1.0000   
         C         C         1.0       0.30285738985587424           0.37630441699019607          0.011986297513181254         1.0000   
         C         C         1.0       0.2907951385870023  0.3937098390426008  0.02166919429135228          1.0000   
         C         C         1.0       0.3039348031436362  0.4252545412163542  0.01607002040390504          1.0000   
         C         C         1.0       0.329164532887508   0.4406829820168911  0.997992682770625  1.0000   
         C         C         1.0       0.3408497946137299  0.4235517548090456  0.9868379612345594 1.0000   
         H         H         1.0       0.4240733220336001  0.15805920786309285           0.9596309443284418 1.0000   
         H         H         1.0       0.47756583115849116           0.5843089931366855 0.03527996913597309          1.0000   
         H         H         1.0       0.5303857740528826  0.16375554900469097           0.9500244200704128 1.0000   
         H         H         1.0       0.4786786075863899  0.2110527894768451  0.952734574085746  1.0000   
         H         H         1.0       0.5019210741997941  0.5664839866046443  0.9573867730225516 1.0000   
         H         H         1.0       0.5594818219342791  0.58094790586107    0.9631408312617926 1.0000   
         H         H         1.0       0.35520885145156034           0.08321823311420307          0.8961365084471037 1.0000   
         H         H         1.0       0.37369049887275857           0.10661822936088962          0.9356060920668047 1.0000   
         H         H         1.0       0.4313802661249046  0.5338143648398621  0.0161794419811776 1.0000   
         H         H         1.0       0.4002736237861855  0.475911756284231   0.00826438501513116          1.0000   
         H         H         1.0       0.4108463593475854  0.4949136991096449  0.9305692002200957 1.0000   
         H         H         1.0       0.45379294460160813           0.5551215816119185 0.9397359351464987 1.0000   
         H         H         1.0       0.4304834922342905  0.407926655852049   0.010172184985518529         1.0000   
         H         H         1.0       0.40216381452623046           0.4337687282182296 0.007412935138049415         1.0000   
         H         H         1.0       0.406785658714207   0.4317707139675356  0.9277925059250541 1.0000   
         H         H         1.0       0.4321177058172576  0.4015246718312126  0.9321243423443667 1.0000   
         H         H         1.0       0.34057113911629633           0.4706382874993114 0.9419501573672532 1.0000   
         H         H         1.0       0.29378307616787647           0.44817133267846565          0.9159640284963771 1.0000   
         H         H         1.0       0.28525367094675064           0.35758278899574125          0.9133278308138905 1.0000   
         H         H         1.0       0.33581495402512845           0.37936487441632666          0.9407102655774532 1.0000   
         H         H         1.0       0.33450728780161904           0.376615046162564  0.9848636654735975 1.0000   
         H         H         1.0       0.2940515171443271  0.3515946284073848  0.018310677407520348         1.0000   
         H         H         1.0       0.29540168878028994           0.4409007663806145 0.023542703496118866         1.0000   
         H         H         1.0       0.34323068547677016           0.4666457659929208 0.9988559546330497 1.0000   
         C         C         1.0       0.4452038775535358  0.24875829298685895           0.4503173391640805 1.0000   
         C         C         1.0       0.4395287985449754  0.2720712353767913  0.4570698322811504 1.0000   
         C         C         1.0       0.45497272138997324           0.3007925436270329 0.4429754438715881 1.0000   
         C         C         1.0       0.47428811596734327           0.30629817969599077          0.42212354159761895          1.0000   
         C         C         1.0       0.4806502177310017  0.2827535172874164  0.4172575440366835 1.0000   
         C         C         1.0       0.46676491936701975           0.25419733481713686          0.43092487704047433          1.0000   
         H         H         1.0       0.4205929016844703  0.26947110681785585           0.47039199686979594          1.0000   
         H         H         1.0       0.4484159899454013  0.31768079432018415           0.44592423773693646          1.0000   
         H         H         1.0       0.4994858508877563  0.28818397120067657           0.4036246921076685 1.0000   
         H         H         1.0       0.4730344322499296  0.236556933047218   0.4259493207673492 1.0000   
         C         C         1.0       0.5216891050409889  0.35933769875168137           0.36257899030792123          1.0000   
         C         C         1.0       0.49542014617809266           0.3337225075904608 0.3764021406512254 1.0000   
         C         C         1.0       0.4712989425813826  0.3042396303166889  0.36457840470862735          1.0000   
         C         C         1.0       0.4718625144656421  0.3022266269222217  0.3399076690053267 1.0000   
         C         C         1.0       0.49683803197412124           0.328650909953291  0.3249070865802257 1.0000   
         C         C         1.0       0.521411252935531   0.3558119132720449  0.33698923968416966          1.0000   
         C         C         1.0       0.4905321530111048  0.3387606835715662  0.4041734254235839 1.0000   
         C         C         1.0       0.5250538926242183  0.36407231553976804           0.42060856726418355          1.0000   
         C         C         1.0       0.5570810929434026  0.3692516595060518  0.416518729098356  1.0000   
         C         C         1.0       0.5841017240628283  0.38625748452278375           0.4325369666213289 1.0000   
         C         C         1.0       0.5815161715581476  0.40184563529795964           0.4531209368855868 1.0000   
         C         C         1.0       0.5505023511417924  0.39840830123495435           0.45713542537481233          1.0000   
         C         C         1.0       0.5232962181769495  0.3795027488091691  0.44121675859168497          1.0000   
         C         C         1.0       0.432286466321932   0.3303086273918582  0.39307207769024866          1.0000   
         C         C         1.0       0.4105377833422653  0.3399590965927099  0.38641457044660915          1.0000   
         C         C         1.0       0.42254892280537437           0.3726381211390715 0.38537567815163204          1.0000   
         C         C         1.0       0.4577599209951109  0.3953075141695409  0.3920950892179436 1.0000   
         C         C         1.0       0.4792228667035111  0.38574486014038145           0.3989530021930326 1.0000   
         C         C         1.0       0.46617658341726353           0.3524722037788848 0.39998601471881234          1.0000   
         C         C         1.0       0.39698051813142093           0.3827438407485579 0.37545119658035864          1.0000   
         C         C         1.0       0.4258002057107139  0.3902869240601306  0.2976088442756817 1.0000   
         C         C         1.0       0.3960212036734323  0.3615811978690266  0.30642533614796663          1.0000   
         C         C         1.0       0.38695360748343877           0.3591168811346881 0.33009031501736497          1.0000   
         C         C         1.0       0.406057998130078   0.3848565973517026  0.34628280464708044          1.0000   
         C         C         1.0       0.43818951695271235           0.41230537588573707          0.3383285706641035 1.0000   
         C         C         1.0       0.446631001495319   0.4143908431434639  0.3141837822716798 1.0000   
         C         C         1.0       0.40344045486178226           0.41577216461615907          0.38520314107143516          1.0000   
         C         C         1.0       0.4153247471253473  0.4267901309118247  0.4087418877028421 1.0000   
         C         C         1.0       0.4202381156861897  0.45588304856709905           0.41740654949849126          1.0000   
         C         C         1.0       0.40885288907877126           0.4708950206553118 0.40400515456292174          1.0000   
         C         C         1.0       0.39946997932221123           0.46156165979120867          0.379430145223576  1.0000   
         C         C         1.0       0.39632873053907974           0.4342103534244804 0.3705367238043399 1.0000   
         C         C         1.0       0.32930359866214937           0.34859262067275776          0.3675502742342161 1.0000   
         C         C         1.0       0.295652194709331   0.3314506204700862  0.376434333180358  1.0000   
         C         C         1.0       0.2885340435676583  0.325927273390884   0.4011208757978888 1.0000   
         C         C         1.0       0.3143452347662174  0.3295592870833444  0.41560125006719684          1.0000   
         C         C         1.0       0.34808700626763894           0.3469036132005522 0.4079652888310984 1.0000   
         C         C         1.0       0.3559266837221555  0.35608456043888737           0.3833404438861698 1.0000   
         H         H         1.0       0.5405899799148675  0.38280170906242755           0.3701020435009892 1.0000   
         H         H         1.0       0.448304095405449   0.28374627191766877           0.37246554170132706          1.0000   
         H         H         1.0       0.451742064536712   0.2802769124382596  0.3314028205553127 1.0000   
         H         H         1.0       0.5404402743416229  0.3778331450529102  0.3260822702104438 1.0000   
         H         H         1.0       0.560357191352325   0.35986202737969814           0.3998675443936862 1.0000   
         H         H         1.0       0.6092264001185732  0.39190167353258887           0.427242134403037  1.0000   
         H         H         1.0       0.5471909077037798  0.41052030443129695           0.4721818004642161 1.0000   
         H         H         1.0       0.49964014861203065           0.37766491162802945          0.4441564901109357 1.0000   
         H         H         1.0       0.4208916709373426  0.3035158780365139  0.39132419458117806          1.0000   
         H         H         1.0       0.38409344689550995           0.3206269276691388 0.37949377028682435          1.0000   
         H         H         1.0       0.4700242758832853  0.42194957657448734           0.39076616398329495          1.0000   
         H         H         1.0       0.5078242852549356  0.4044111804378258  0.4015144941345053 1.0000   
         H         H         1.0       0.38314406235659465           0.34043304059611856          0.29575025607782013          1.0000   
         H         H         1.0       0.3644943489792834  0.3359020963297723  0.33657157033006013          1.0000   
         H         H         1.0       0.4553349602752645  0.4323425254075158  0.3506360281889556 1.0000   
         H         H         1.0       0.46968970687388895           0.4383613996990319 0.30845202543080114          1.0000   
         H         H         1.0       0.4179307495470204  0.4120781569776402  0.4233212411374759 1.0000   
         H         H         1.0       0.42709140892351455           0.4638409145691573 0.43605482180760335          1.0000   
         H         H         1.0       0.3930855854466615  0.4764333813346216  0.3707290654687786 1.0000   
         H         H         1.0       0.3857257620523297  0.4276260655235722  0.35192107100182934          1.0000   
         H         H         1.0       0.33247312211295715           0.3552626222628413 0.3481638845023034 1.0000   
         H         H         1.0       0.27469851352006486           0.327298524768933  0.3653401476628447 1.0000   
         H         H         1.0       0.3086855365813362  0.3225221030439387  0.435020150850121  1.0000   
         H         H         1.0       0.3675950630129815  0.35262510900382144           0.42157661931307666          1.0000   
         C         C         1.0       0.16225572235366922           0.3593055806306015 0.25824436690591024          1.0000   
         C         C         1.0       0.1826006574076477  0.3884339406912188  0.24478935197855511          1.0000   
         C         C         1.0       0.19200434715624048           0.41794523992362725          0.25513892394072957          1.0000   
         C         C         1.0       0.18080479609746297           0.41886626995676574          0.2785430455363687 1.0000   
         C         C         1.0       0.1642955405592298  0.389040016676167   0.29247012866646943          1.0000   
         C         C         1.0       0.15538986604190608           0.3597015822609558 0.2816134335352172 1.0000   
         H         H         1.0       0.1881228587388896  0.3852904356166298  0.22650710657892334          1.0000   
         H         H         1.0       0.20633377628157984           0.4403145296371572 0.24404602105210216          1.0000   
         H         H         1.0       0.1578316755782398  0.38771269530761854           0.31121173447327927          1.0000   
         H         H         1.0       0.14376104161311123           0.33877575080048317          0.292238040651755  1.0000   
         C         C         1.0       0.5372436149679968  0.3725038469140072  0.22404016241377755          1.0000   
         C         C         1.0       0.15662560297226522           0.4461309314095955 0.3057480635061848 1.0000   
         C         C         1.0       0.16257410339086162           0.46730409510762605          0.32519839042462284          1.0000   
         C         C         1.0       0.5432301188744261  0.40025123514537136           0.2686164085420199 1.0000   
         C         C         1.0       0.512898511441882   0.36970656727699    0.263413303397338  1.0000   
         C         C         1.0       0.5097244196852773  0.35705519365967564           0.24039100442679323          1.0000   
         C         C         1.0       0.18999837998058333           0.4519408874936232 0.2908408616235856 1.0000   
         C         C         1.0       0.19884635928881964           0.48179624599462695          0.27293166115732514          1.0000   
         C         C         1.0       0.2177133804761692  0.5136943495488995  0.28260287622731034          1.0000   
         C         C         1.0       0.21474996940204424           0.5386675741391895 0.2714516083051039 1.0000   
         C         C         1.0       0.19240816112486234           0.5301963762812237 0.25195756652820067          1.0000   
         C         C         1.0       0.17651144497484658           0.4990412692061469 0.2413532372563273 1.0000   
         C         C         1.0       0.17717006667117563           0.47462585065768553          0.2523893029548076 1.0000   
         C         C         1.0       0.2193879677841049  0.44897767368819075           0.33111866400627105          1.0000   
         C         C         1.0       0.24514928602346303           0.44319532984818766          0.3401532054787621 1.0000   
         C         C         1.0       0.27235981035823464           0.4481746848540868 0.326028914025375  1.0000   
         C         C         1.0       0.2757854944915238  0.4627640324987846  0.30399463504071195          1.0000   
         C         C         1.0       0.25347232048565244           0.46946039150979463          0.2947590474540479 1.0000   
         C         C         1.0       0.22338303140540372           0.4604518825453155 0.3077877259074479 1.0000   
         C         C         1.0       0.29397238612147597           0.43205488226939126          0.3324339156469128 1.0000   
         C         C         1.0       0.3953163134629225  0.526587728404391   0.33504499918957026          1.0000   
         C         C         1.0       0.37235564470004    0.5145312425353898  0.3538286765194754 1.0000   
         C         C         1.0       0.3412745283991991  0.48555855928799063           0.35155193464901835          1.0000   
         C         C         1.0       0.3327384602716961  0.4652992234868102  0.3316538172153433 1.0000   
         C         C         1.0       0.35499711037904474           0.47725143673419657          0.31150655638606317          1.0000   
         C         C         1.0       0.38674372831027354           0.506487148252083  0.3140601906594875 1.0000   
         C         C         1.0       0.2852332237545078  0.4057415228204404  0.31121609027119734          1.0000   
         C         C         1.0       0.25136238134921396           0.38592712555983993          0.3022261830891822 1.0000   
         C         C         1.0       0.24399375575483406           0.36328207458702144          0.28412560890276833          1.0000   
         C         C         1.0       0.2677629630582452  0.35824567164687127           0.27429884434774976          1.0000   
         C         C         1.0       0.2992409868715193  0.37399115485894036           0.2859024695882292 1.0000   
         C         C         1.0       0.3071158464548771  0.39701572675306    0.3036014327721456 1.0000   
         C         C         1.0       0.2498480138498089  0.38582148504636143           0.3618831549872001 1.0000   
         C         C         1.0       0.2396960268042184  0.3676019869445446  0.38360426217746296          1.0000   
         C         C         1.0       0.26618292486529566           0.37310333049139677          0.39987646683448697          1.0000   
         C         C         1.0       0.29917669083496506           0.39861915192522007          0.3954528340695398 1.0000   
         C         C         1.0       0.30694449743841973           0.4123419572385843 0.37324517254965117          1.0000   
         C         C         1.0       0.28328668478951097           0.4099154834277492 0.3564269498977983 1.0000   
         H         H         1.0       0.5340243295958738  0.362745100786004   0.20707242930733127          1.0000   
         H         H         1.0       0.18943157988656079           0.4869018596426601 0.32855008620256926          1.0000   
         H         H         1.0       0.137899103774762   0.4755183578215947  0.3539912417137639 1.0000   
         H         H         1.0       0.48540091939724916           0.3346596200937756 0.2337650677022039 1.0000   
         H         H         1.0       0.23461412919316843           0.5194797523480224 0.29805844453769326          1.0000   
         H         H         1.0       0.22660596374284553           0.5621776668375974 0.2798443027445725 1.0000   
         H         H         1.0       0.15616863499779332           0.4939954076192531 0.22789233652917867          1.0000   
         H         H         1.0       0.15912543956686803           0.45152289468209456          0.24446167946444333          1.0000   
         H         H         1.0       0.19614605981627306           0.4392318483365312 0.34257580778872854          1.0000   
         H         H         1.0       0.2414333012213237  0.4330447155904719  0.35935687901352037          1.0000   
         H         H         1.0       0.29667988149834335           0.46771157483877246          0.29083871885903395          1.0000   
         H         H         1.0       0.2554443285941168  0.47596645938780935           0.27416677802134565          1.0000   
         H         H         1.0       0.37787613932022707           0.5293615402917579 0.37003383624190767          1.0000   
         H         H         1.0       0.32504239228895315           0.47717371865903735          0.3677237071829652 1.0000   
         H         H         1.0       0.348671380558452   0.46196569826965306           0.29497976558562794          1.0000   
         H         H         1.0       0.4036173261979733  0.5152863905693017  0.29801957280421837          1.0000   
         H         H         1.0       0.23196060613713795           0.38926877007893085          0.3066228832686363 1.0000   
         H         H         1.0       0.21744750911680685           0.35110049609079697          0.2769844641705338 1.0000   
         H         H         1.0       0.31911921133641247           0.369993540893638  0.2802624318939951 1.0000   
         H         H         1.0       0.33427449050241875           0.4108263751051891 0.31010578707415987          1.0000   
         H         H         1.0       0.23041957757977896           0.3781163215633046 0.3483798057581482 1.0000   
         H         H         1.0       0.21271602601086947           0.34827779253043734          0.38630040541948757          1.0000   
         H         H         1.0       0.3186728348474372  0.4029155177886053  0.406709458209026  1.0000   
         H         H         1.0       0.3345179364883877  0.42905903357787967           0.3688431903727673 1.0000   
         C         C         1.0       0.2759713756932167  0.37888591350536505           0.21985261196571215          1.0000   
         C         C         1.0       0.2909427555784169  0.37601025649671227           0.19939835796128544          1.0000   
         C         C         1.0       0.32340009419705706           0.40207570898521167          0.19141394142301763          1.0000   
         C         C         1.0       0.3378947725311741  0.433740592375791   0.2007632558265648 1.0000   
         C         C         1.0       0.3186768820693527  0.4375234179646109  0.2178638235632519 1.0000   
         C         C         1.0       0.2893413194161317  0.41049295791124985           0.22779210212121456          1.0000   
         H         H         1.0       0.27996276778304513           0.35159481825724387          0.19051521838934168          1.0000   
         H         H         1.0       0.3362618531819     0.396667087639261   0.17798242308088283          1.0000   
         H         H         1.0       0.3308587912956882  0.46354944164943906           0.2252532429913238 1.0000   
         H         H         1.0       0.2716931470113481  0.4133567124019956  0.2393628908263291 1.0000   
         C         C         1.0       0.3634329459549328  0.46044652629325256           0.14739277571122966          1.0000   
         C         C         1.0       0.3872145726590007  0.46659104298410903           0.1657902025974482 1.0000   
         C         C         1.0       0.4216612483912992  0.4875361000415044  0.15947707330968378          1.0000   
         C         C         1.0       0.4327176675212516  0.49770925069519734           0.1363987521356849 1.0000   
         C         C         1.0       0.40778051999010023           0.4880465760266066 0.1181854053110447 1.0000   
         C         C         1.0       0.37161675893137397           0.4675368114539472 0.12319430952513744          1.0000   
         C         C         1.0       0.3769369703021652  0.46110856006834394           0.19529976084477202          1.0000   
         C         C         1.0       0.39464388904615433           0.4477560785623243 0.21141400363264376          1.0000   
         C         C         1.0       0.39614731956421345           0.44897828338096446          0.23717041425790972          1.0000   
         C         C         1.0       0.41402067859518654           0.439298815029813  0.251074996081589  1.0000   
         C         C         1.0       0.42997337344459996           0.42665209619314926          0.23947984781675372          1.0000   
         C         C         1.0       0.4279173654359206  0.4232772066427446  0.2143828834919102 1.0000   
         C         C         1.0       0.4125726457788774  0.4357825450839609  0.20040802333120006          1.0000   
         C         C         1.0       0.5022061722041885  0.15845626303540175           0.27640356242832775          1.0000   
         C         C         1.0       0.4998404957309075  0.17597602734695822           0.2581474410131023 1.0000   
         C         C         1.0       0.528371094909322   0.1968504275483062  0.24411288834778425          1.0000   
         C         C         1.0       0.560169388134532   0.2043233904476882  0.2520185569194762 1.0000   
         C         C         1.0       0.5627044629229898  0.1873397453736908  0.2714527799428834 1.0000   
         C         C         1.0       0.5331513936516118  0.16154996166278401           0.2826429297803295 1.0000   
         C         C         1.0       0.5227021323291007  0.20691498894513752           0.2177196477684485 1.0000   
         C         C         1.0       0.49518112708265727           0.11827369473221205          0.17680087082304896          1.0000   
         C         C         1.0       0.469455229025698   0.12068046654742784           0.18550624839357904          1.0000   
         C         C         1.0       0.4776537053508878  0.14715050427249482           0.20028293273736364          1.0000   
         C         C         1.0       0.5124473983868209  0.1733410738692972  0.2041027790627105 1.0000   
         C         C         1.0       0.5379207047955362  0.16925019452407702           0.19606054389994973          1.0000   
         C         C         1.0       0.5293883131787623  0.1422909720665342  0.1832736377348094 1.0000   
         C         C         1.0       0.5557400228502835  0.23836291632617126           0.20239716656143525          1.0000   
         C         C         1.0       0.5826754324538093  0.2685204277229509  0.21461253485490578          1.0000   
         C         C         1.0       0.6099227354872494  0.2941993637567148  0.2022161872581591 1.0000   
         C         C         1.0       0.611997603601863   0.29174947967380543           0.17766564685003527          1.0000   
         C         C         1.0       0.586483449134539   0.2634332982052429  0.16480092855820344          1.0000   
         C         C         1.0       0.5579883381096162  0.23829183710851382           0.1768414459565406 1.0000   
         C         C         1.0       0.473380759592401   0.21136197174419652           0.19816981686734672          1.0000   
         C         C         1.0       0.4488947390284256  0.21811609308480412           0.1993837748899723 1.0000   
         C         C         1.0       0.4482790803410045  0.23377640369334118           0.22006094849214308          1.0000   
         C         C         1.0       0.474291668858165   0.24423419082153822           0.2387025342604528 1.0000   
         C         C         1.0       0.4977805211097657  0.23579651878215577           0.23740712740202782          1.0000   
         C         C         1.0       0.49595106820344614           0.21743474733289453          0.21766484645637593          1.0000   
         H         H         1.0       0.3356977565047907  0.4497608598801974  0.1509517908622583 1.0000   
         H         H         1.0       0.4390440590137646  0.4950302293421883  0.17418222687407026          1.0000   
         H         H         1.0       0.45804670081198556           0.5091231885745091 0.13123536213068338          1.0000   
         H         H         1.0       0.3513781786705453  0.4661154005741361  0.11286172895746432          1.0000   
         H         H         1.0       0.3815491879758618  0.45575638212927894           0.2478711749093377 1.0000   
         H         H         1.0       0.4134318026403676  0.4398607925924865  0.27122000876332575          1.0000   
         H         H         1.0       0.43919684642297424           0.41134550457861696          0.2053594458626666 1.0000   
         H         H         1.0       0.4123239833778761  0.43267407520668116           0.18100997438176267          1.0000   
         H         H         1.0       0.3485599487385497  0.496538277919689   0.17893813853447862          1.0000   
         H         H         1.0       0.47523027203201745           0.17205032637862763          0.25267140391373877          1.0000   
         H         H         1.0       0.5829989063793477  0.2169919118139232  0.239858692427327  1.0000   
         H         H         1.0       0.5866706328341083  0.1902486311806483  0.27267036333202405          1.0000   
         H         H         1.0       0.4424280837833044  0.10139609882107732           0.18468637016569003          1.0000   
         H         H         1.0       0.45669174366290266           0.147907975023924  0.20795962451806274          1.0000   
         H         H         1.0       0.5657621802041433  0.1877503369553936  0.1968619463052011 1.0000   
         H         H         1.0       0.9629075111577474  0.16478210015298925           0.18090286612338627          1.0000   
         H         H         1.0       0.5815303007210986  0.2706128299590234  0.2344455735413696 1.0000   
         H         H         1.0       0.6298584921247729  0.31573852493025667           0.212213294726977  1.0000   
         H         H         1.0       0.5860648272722191  0.26117973063690914           0.14521294546096422          1.0000   
         H         H         1.0       0.535696758029723   0.2178085362621692  0.16538370903483768          1.0000   
         H         H         1.0       0.47411971787670637           0.1994641169484591 0.18149134969459868          1.0000   
         H         H         1.0       0.42923644848324743           0.21076109592147543          0.18479986924321146          1.0000   
         H         H         1.0       0.4724845615944498  0.25625074546149673           0.2545665239007673 1.0000   
         H         H         1.0       0.5202641421758408  0.24644004198662034           0.25048913116354504          1.0000   
         C         C         1.0       0.2544077096714562  0.26015181108423285           0.10884714289579145          1.0000   
         C         C         1.0       0.2714036171623587  0.253989460619532   0.0922408052982695 1.0000   
         C         C         1.0       0.3019000634810561  0.28037871062052455           0.08138439117330787          1.0000   
         C         C         1.0       0.3163267744888419  0.3126581645986046  0.08855967763505103          1.0000   
         C         C         1.0       0.29633102585840393           0.316925076182602  0.10427678705737586          1.0000   
         C         C         1.0       0.26723926399578934           0.29293223561456916          0.11504425538423026          1.0000   
         H         H         1.0       0.26048907220746076           0.22738443083228774          0.08929197582976967          1.0000   
         H         H         1.0       0.31608378927122044           0.27248427089667293          0.07055796173659101          1.0000   
         H         H         1.0       0.3085239730446958  0.3408338833807245  0.113084948091293  1.0000   
         H         H         1.0       0.2519874410385249  0.2978201261685356  0.1275264942650489 1.0000   
         C         C         1.0       0.3417100772866566  0.3863702932252124  0.07002858883514551          1.0000   
         C         C         1.0       0.36467259802157526           0.37723211516436594          0.07386435094535583          1.0000   
         C         C         1.0       0.3997730581007096  0.40286917237469    0.0716243189330701 1.0000   
         C         C         1.0       0.40931521582710684           0.4356558203984715 0.0677827343801718 1.0000   
         C         C         1.0       0.3865451919395626  0.4434929340699612  0.06793725062909961          1.0000   
         C         C         1.0       0.35118669693163745           0.41845916937301286          0.06898219333797928          1.0000   
         C         C         1.0       0.35369384479062127           0.3400789166960717 0.07973298427040265          1.0000   
         C         C         1.0       0.36403714338705223           0.33292737748431245          0.05287835322344759          1.0000   
         C         C         1.0       0.396542790282576   0.3420088604918365  0.04947715386053364          1.0000   
         C         C         1.0       0.4076828958858204  0.34143996744149724           0.027054373783547137         1.0000   
         C         C         1.0       0.38748500287008586           0.33516417412198424          0.007158918211491727         1.0000   
         C         C         1.0       0.35471733133557093           0.3279179922706219 0.009606691029504288         1.0000   
         C         C         1.0       0.34353211653808696           0.3285982662407984 0.03206414935351898          1.0000   
         C         C         1.0       0.3832463688151142  0.3651477348719741  0.12147673724194236          1.0000   
         C         C         1.0       0.40470726070909185           0.36892047111101883          0.14029163841225456          1.0000   
         C         C         1.0       0.4203930277946433  0.35102724772180477           0.14059458282760612          1.0000   
         C         C         1.0       0.4057154795429694  0.3237026867758492  0.12662959095246568          1.0000   
         C         C         1.0       0.38439423521973504           0.3211805354149599 0.10725346163250477          1.0000   
         C         C         1.0       0.3744147456956772  0.34253926041698873           0.1030831842460177 1.0000   
         C         C         1.0       0.4568155521634652  0.36602914675520204           0.15619433598345422          1.0000   
         C         C         1.0       0.5186009350857362  0.4670659757072984  0.1876051619204429 1.0000   
         C         C         1.0       0.5173536664355208  0.44156875676936647           0.2000972010505473 1.0000   
         C         C         1.0       0.49512016911961537           0.40944362962832787          0.19089481442259174          1.0000   
         C         C         1.0       0.4747638359891863  0.40225745889908965           0.17035205216346053          1.0000   
         C         C         1.0       0.47679490765545374           0.42836432325372337          0.1591147503302092 1.0000   
         C         C         1.0       0.49839736441807403           0.4598201512747026 0.16689217851627777          1.0000   
         C         C         1.0       0.487959126166289   0.3722755547031071  0.1394860139356449 1.0000   
         C         C         1.0       0.5154932255046704  0.37395973609965805           0.1497569821780592 1.0000   
         C         C         1.0       0.5352266575692847  0.3671464293912736  0.13602829157298435          1.0000   
         C         C         1.0       0.5291509442511976  0.36249951085002785           0.11075301068448468          1.0000   
         C         C         1.0       0.5071904124265132  0.3693868061699507  0.0997998407652911 1.0000   
         C         C         1.0       0.48583908543360455           0.37311377112455557          0.11432054952593584          1.0000   
         C         C         1.0       0.42582695936719145           0.3341185483261159 0.19518340804661727          1.0000   
         C         C         1.0       0.4198494814107282  0.3110038129650355  0.2128012465372492 1.0000   
         C         C         1.0       0.42772063984849923           0.2882965493838005 0.20853789230633277          1.0000   
         C         C         1.0       0.43969601753822185           0.2874311141168678 0.1862834919688568 1.0000   
         C         C         1.0       0.449649233099922   0.31219059561970297           0.17145929838802834          1.0000   
         C         C         1.0       0.445093180744516   0.33785381093731004           0.17626840071522443          1.0000   
         H         H         1.0       0.31535330192306993           0.3661216963395601 0.06733837190818681          1.0000   
         H         H         1.0       0.41766785022270086           0.39784369610836334          0.07400196132553939          1.0000   
         H         H         1.0       0.4356891825438931  0.45535828376784654           0.06748740642542406          1.0000   
         H         H         1.0       0.3308980405076313  0.42150166711083326           0.0709009006840331 1.0000   
         H         H         1.0       0.41674327752759727           0.35286986689656324          0.06316726413990836          1.0000   
         H         H         1.0       0.43450563663718883           0.3464518013681673 0.026899153830142852         1.0000   
         H         H         1.0       0.33884332609488094           0.32326727337443467          0.9921596778182986 1.0000   
         H         H         1.0       0.31910995937341    0.3263142240607579  0.03428718084078187          1.0000   
         H         H         1.0       0.37863700091028435           0.3841712120042994 0.12046392390685856          1.0000   
         H         H         1.0       0.4104338291118214  0.3888351490644209  0.15240584823010958          1.0000   
         H         H         1.0       0.4156671980219281  0.3077045729630457  0.12598090717199847          1.0000   
         H         H         1.0       0.3746449301379592  0.30061439348266317           0.09511905964259394          1.0000   
         H         H         1.0       0.5353969139193252  0.44461964917530916           0.2143602856934158 1.0000   
         H         H         1.0       0.4948927390553387  0.3894816289506039  0.19964391020752506          1.0000   
         H         H         1.0       0.4650015057830691  0.4251792462324807  0.14137206307473374          1.0000   
         H         H         1.0       0.501052506113441   0.4800063019288703  0.15408672547333938          1.0000   
         H         H         1.0       0.5208355345700613  0.3733848002233061  0.1683111306074782 1.0000   
         H         H         1.0       0.5558012287644646  0.3663925276323571  0.14619058884884634          1.0000   
         H         H         1.0       0.4991603223554325  0.36371655219398735           0.08113159847864138          1.0000   
         H         H         1.0       0.4630227264510688  0.37032268070334795           0.1061362035727146 1.0000   
         H         H         1.0       0.41831420934611185           0.3503513325993603 0.19884287299200945          1.0000   
         H         H         1.0       0.4071810960644953  0.30901931657598036           0.23005870553977328          1.0000   
         H         H         1.0       0.44483806163782463           0.26942896804609584          0.18079982972576028          1.0000   
         H         H         1.0       0.458750043435574   0.3103588392146856  0.15403488661968923          1.0000   
         C         C         1.0       0.21003230883739518           0.32287944231584687          0.9083070037581812 1.0000   
         C         C         1.0       0.20525867768702727           0.3082880384054066 0.9312172476287658 1.0000   
         C         C         1.0       0.19752283657555245           0.27789379982275386          0.933297390399937  1.0000   
         C         C         1.0       0.1875400077797152  0.2572667619432022  0.9130185440944302 1.0000   
         C         C         1.0       0.1904785638295538  0.2715534359932501  0.8903097088751543 1.0000   
         C         C         1.0       0.20262381391997736           0.3034921618525889 0.8879898981200117 1.0000   
         H         H         1.0       0.2151162359541125  0.326574396030969   0.9470693670062335 1.0000   
         H         H         1.0       0.2007035541129416  0.27031167816190227           0.9511172422866124 1.0000   
         H         H         1.0       0.18100779243544188           0.2569766692398531 0.8739697369077564 1.0000   
         H         H         1.0       0.20638137432683376           0.31398268639043103          0.8696523834466156 1.0000   
         C         C         1.0       0.1285712229349572  0.1887352213325016  0.8793397656918381 1.0000   
         C         C         1.0       0.15577524575371993           0.1930534202165232 0.8934033235006336 1.0000   
         C         C         1.0       0.1679740534536677  0.17370337113462408           0.8862653566468686 1.0000   
         C         C         1.0       0.15126030373992194           0.14879945966614688          0.868627908058657  1.0000   
         C         C         1.0       0.12455219148032803           0.14508912220067371          0.8560521871158016 1.0000   
         C         C         1.0       0.1123702617532677  0.16506428543582014           0.8608283567218276 1.0000   
         C         C         1.0       0.17273762235503454           0.21835138130027812          0.916154468726683  1.0000   
         C         C         1.0       0.13828115916618808           0.19862853573231146          0.9342936469091414 1.0000   
         C         C         1.0       0.12628893155702087           0.16732210305019432          0.9424152989024057 1.0000   
         C         C         1.0       0.09737440756795597           0.15177766682498847          0.956559397314812  1.0000   
         C         C         1.0       0.07938205404016316           0.16490883167234655          0.962524653456878  1.0000   
         C         C         1.0       0.08956386831946334           0.1950369467400684 0.9517526003267706 1.0000   
         C         C         1.0       0.11834651664412585           0.21102292061714156          0.9370492569211128 1.0000   
         C         C         1.0       0.23539913656832143           0.2344262052284232 0.9102807400493782 1.0000   
         C         C         1.0       0.26120588238861187           0.23023067594958913          0.9143027008515536 1.0000   
         C         C         1.0       0.2600651006048534  0.21091917311689845           0.9348744062658934 1.0000   
         C         C         1.0       0.23678606367536306           0.20520305365920805          0.9531384274636494 1.0000   
         C         C         1.0       0.21010568812615515           0.20956213826157183          0.9486093113161287 1.0000   
         C         C         1.0       0.2077931770490445  0.22101989556062554           0.9258086111593032 1.0000   
         C         C         1.0       0.2842813608888752  0.1980579968409265  0.9336751313989051 1.0000   
         C         C         1.0       0.21449475388397865           0.11957823017224965          0.8818494097809262 1.0000   
         C         C         1.0       0.24166555872422793           0.14862327273821274          0.8718046913310032 1.0000   
         C         C         1.0       0.26613891298391734           0.17266508329486172          0.8876604460661416 1.0000   
         C         C         1.0       0.2609566017433823  0.16963012156368076           0.9134926764565549 1.0000   
         C         C         1.0       0.23258062190243578           0.14015768467756035          0.9218171179855753 1.0000   
         C         C         1.0       0.21065003972654595           0.1150815050852329 0.9064389634484145 1.0000   
         C         C         1.0       0.2925038953947184  0.18718376121776367           0.9585668562591904 1.0000   
         C         C         1.0       0.3013412850636458  0.20675346051779367           0.978864470382911  1.0000   
         C         C         1.0       0.31395550450976223           0.19941235304273458          9.992248761503397e-05        1.0000   
         C         C         1.0       0.3167532032747879  0.172813782475479   0.00020150832671861352       1.0000   
         C         C         1.0       0.31001426769013946           0.15487682597096503          0.9792903741701176 1.0000   
         C         C         1.0       0.29633968942805367           0.16053272255880166          0.959566601738652  1.0000   
         C         C         1.0       0.3367638595833699  0.25652147281797644           0.9339260930493587 1.0000   
         C         C         1.0       0.3712305351694829  0.280006653578078   0.9305003539785156 1.0000   
         C         C         1.0       0.38985163497166825           0.2720510642975493 0.9157520142237929 1.0000   
         C         C         1.0       0.3754718342968361  0.24134565196752375           0.9066326840550033 1.0000   
         C         C         1.0       0.3421286593262123  0.21790962481629636           0.9121775826359276 1.0000   
         C         C         1.0       0.32201563841391534           0.2245596622166484 0.9256263811988931 1.0000   
         H         H         1.0       0.11953740772477536           0.20421774126777326          0.8844992463194675 1.0000   
         H         H         1.0       0.18706597794426363           0.17353564504598076          0.8980087683049732 1.0000   
         H         H         1.0       0.15937046696869941           0.13270492497987657          0.8669069021925538 1.0000   
         H         H         1.0       0.09065422670054518           0.16213973459435171          0.8519300319087183 1.0000   
         H         H         1.0       0.13844346811290684           0.15602032948076622          0.9387653541864792 1.0000   
         H         H         1.0       0.08895866442964039           0.12726889172858905          0.9616273121095147 1.0000   
         H         H         1.0       0.07689622280896209           0.20630438957396166          0.9551013941496598 1.0000   
         H         H         1.0       0.12340283001899283           0.2320133984054536 0.9281926212162253 1.0000   
         H         H         1.0       0.24072637146472625           0.24773336677715538          0.8931005142483336 1.0000   
         H         H         1.0       0.2814658142324173  0.23817791042723824           0.9014233413451173 1.0000   
         H         H         1.0       0.23424150301129382           0.18989817634317563          0.9686893011369627 1.0000   
         H         H         1.0       0.18901214083246706           0.19911379914149688          0.9612525867579926 1.0000   
         H         H         1.0       0.24569874041661705           0.15360253767892565          0.8527249812326457 1.0000   
         H         H         1.0       0.287686672485718   0.19588571481780473           0.8808853405786621 1.0000   
         H         H         1.0       0.22922026897216183           0.13564629448513837          0.9415404539114259 1.0000   
         H         H         1.0       0.18990781427136122           0.09273833535036635          0.9148811335049162 1.0000   
         H         H         1.0       0.3011274395726422  0.22874310601030637           0.9794821038089273 1.0000   
         H         H         1.0       0.32080849902232816           0.2157200825020762 0.016954890302983916         1.0000   
         H         H         1.0       0.3120393376586601  0.13391224960373949           0.979605436698835  1.0000   
         H         H         1.0       0.2923215275629205  0.145557652102651   0.9440726331442493 1.0000   
         H         H         1.0       0.32121569075104267           0.2636062602006601 0.9449806964044649 1.0000   
         H         H         1.0       0.3854438877824604  0.3034623051791324  0.9387948319534999 1.0000   
         H         H         1.0       0.390671093291993   0.23622629235151926           0.8955179940580056 1.0000   
         H         H         1.0       0.33394964733383614           0.19367682503391348          0.905410154932471  1.0000   
         C         C         1.0       0.21576877701835895           0.36317516656130566          0.7743050678834617 1.0000   
         C         C         1.0       0.18963123507414748           0.35786001255863276          0.7901746940917418 1.0000   
         C         C         1.0       0.16526754797181045           0.32651485557680443          0.7986461032266023 1.0000   
         C         C         1.0       0.163728530791753   0.29964221037058997           0.791024484803614  1.0000   
         C         C         1.0       0.19055679316300986           0.3057154792773852 0.7756558761383202 1.0000   
         C         C         1.0       0.21500323292127566           0.33578596888715184          0.766840175031301  1.0000   
         H         H         1.0       0.18502849378202554           0.3766057504005664 0.7957044714887469 1.0000   
         H         H         1.0       0.14209894443937038           0.32208935012844103          0.807713179455175  1.0000   
         H         H         1.0       0.19034508681557147           0.285417382716524  0.7687583491744807 1.0000   
         H         H         1.0       0.23263445832009066           0.34107219741230493          0.7519591657953925 1.0000   
         C         C         1.0       0.1111318683591154  0.20201878536740261           0.7831722969189442 1.0000   
         C         C         1.0       0.13479959885139192           0.23226287465870696          0.7946400613646523 1.0000   
         C         C         1.0       0.15959769794065448           0.23425083773565444          0.8106398038366847 1.0000   
         C         C         1.0       0.16329259923999373           0.20854604444859082          0.8112248234002656 1.0000   
         C         C         1.0       0.1381819246319691  0.17773669304184486           0.8025199632498773 1.0000   
         C         C         1.0       0.11184073970548918           0.1744978654326494 0.7879681513654264 1.0000   
         C         C         1.0       0.12833184050659416           0.2617816556168945 0.7935634908948418 1.0000   
         C         C         1.0       0.11223937951581542           0.26264212811529414          0.768070765798834  1.0000   
         C         C         1.0       0.08655034706119882           0.2692450983842131 0.7662724397569421 1.0000   
         C         C         1.0       0.07371189920531498           0.27156041540173237          0.7447161789752775 1.0000   
         C         C         1.0       0.08495463274518064           0.2654694993428834 0.7234529289189482 1.0000   
         C         C         1.0       0.10866206688761658           0.25739640166996525          0.7242589118867557 1.0000   
         C         C         1.0       0.12313109095745507           0.2574184337089651 0.7461262924660275 1.0000   
         C         C         1.0       0.1134542388094588  0.26243028108268984           0.8400383798995913 1.0000   
         C         C         1.0       0.5464334852228223  0.24948761512453946           0.8733669092730058 1.0000   
         C         C         1.0       0.5187581373901444  0.22576351758125238           0.8592167233691185 1.0000   
         C         C         1.0       0.5263363900075013  0.21268861395770597           0.8402191571640073 1.0000   
         C         C         1.0       0.5598176279929237  0.22113672753809463           0.8356618370908337 1.0000   
         C         C         1.0       0.10123238590270964           0.2508479359171834 0.8165129461228158 1.0000   
         C         C         1.0       0.4786961707371271  0.21504885829130474           0.8613529669511008 1.0000   
         C         C         1.0       0.4320685975876936  0.10751489026608277           0.8649132656175366 1.0000   
         C         C         1.0       0.45071346805416723           0.1287648038815392 0.8834892649757071 1.0000   
         C         C         1.0       0.46136614228802575           0.16063182247161692          0.8832397489640526 1.0000   
         C         C         1.0       0.4588494947532532  0.17582448983921176           0.8616393319951811 1.0000   
         C         C         1.0       0.4432192956174802  0.15423208891922918           0.8414104856688431 1.0000   
         C         C         1.0       0.4303761773057522  0.121198472245468   0.8426402858682555 1.0000   
         C         C         1.0       0.4627868693636166  0.22399200375469458           0.8401912252970157 1.0000   
         C         C         1.0       0.4835084005095729  0.24202153022271003           0.8204631023246897 1.0000   
         C         C         1.0       0.47042262044464034           0.2465969232859935 0.7992877939493755 1.0000   
         C         C         1.0       0.43605970047128706           0.2353084563968918 0.7978117568127391 1.0000   
         C         C         1.0       0.41505696547544757           0.21758136642042666          0.8177582590066977 1.0000   
         C         C         1.0       0.42738495232807705           0.2117704767009234 0.8380768017029294 1.0000   
         C         C         1.0       0.44671293669332196           0.21572608784497702          0.901081979977451  1.0000   
         C         C         1.0       0.44449134148283814           0.23355195662035083          0.9184359595320896 1.0000   
         C         C         1.0       0.463606648653325   0.26638256437847574           0.9175927608409125 1.0000   
         C         C         1.0       0.48959627193417826           0.28290276215029725          0.9004008463827217 1.0000   
         C         C         1.0       0.4942146159116333  0.26574716252629227           0.8833130187299851 1.0000   
         C         C         1.0       0.4739215904856297  0.23214239286943514           0.8840079716624394 1.0000   
         H         H         1.0       0.08921702543679826           0.19891505960148198          0.7733480664592852 1.0000   
         H         H         1.0       0.17526734487289694           0.2551620528074801 0.8213852427523523 1.0000   
         H         H         1.0       0.18280141338045564           0.20950364120282064          0.8228862045830186 1.0000   
         H         H         1.0       0.09255497751187672           0.15233938171187725          0.7787470575421522 1.0000   
         H         H         1.0       0.07762229547881377           0.274739063592737  0.7814006232446633 1.0000   
         H         H         1.0       0.05448355417506521           0.27638597980738056          0.7445075064419814 1.0000   
         H         H         1.0       0.11542835200587775           0.24658067667038455          0.7092460417210575 1.0000   
         H         H         1.0       0.14307287894383086           0.25424647807526135          0.7447786030056064 1.0000   
         H         H         1.0       0.1396675475638176  0.2769334258882773  0.844639570168564  1.0000   
         H         H         1.0       0.545868109664186   0.2622640464936797  0.890085887343694  1.0000   
         H         H         1.0       0.5061353651721103  0.19878048207123233           0.8253162136655762 1.0000   
         H         H         1.0       0.5633056507761629  0.20762047853415946           0.820864930542787  1.0000   
         H         H         1.0       0.44887248554962494           0.116846309037858  0.9007946219987596 1.0000   
         H         H         1.0       0.47261296749198145           0.17532164834846994          0.9001969481325657 1.0000   
         H         H         1.0       0.43881995298292453           0.162001316320251  0.8234634632998438 1.0000   
         H         H         1.0       0.42015077989404254           0.10722975023365125          0.8264407091149298 1.0000   
         H         H         1.0       0.5112424555031431  0.25548494437874963           0.8215798335920524 1.0000   
         H         H         1.0       0.4875686225424331  0.26070384892103354           0.7833435113161962 1.0000   
         H         H         1.0       0.3869581728453061  0.20769471074746307           0.8158243229586443 1.0000   
         H         H         1.0       0.41088731906971765           0.19865889817586913          0.8534321343643168 1.0000   
         H         H         1.0       0.4264790511262306  0.18938408056869435           0.9003433645837526 1.0000   
         H         H         1.0       0.4211630058125762  0.22007014086451487           0.9307181894091423 1.0000   
         H         H         1.0       0.5021274918189337  0.30834064427214714           0.8983326973690632 1.0000   
         H         H         1.0       0.5122594072756566  0.28002098577635254           0.8688380394217855 1.0000   
         C         C         1.0       0.23429166352028444           0.4392395715278401 0.5285553357963774 1.0000   
         C         C         1.0       0.2242181105619227  0.44379816453907317           0.5502426842847806 1.0000   
         C         C         1.0       0.21165154346418924           0.4635043038580675 0.5519042999504943 1.0000   
         C         C         1.0       0.21057477691523854           0.47980103730285867          0.5323264593961534 1.0000   
         C         C         1.0       0.22180204668609538           0.4748976466427541 0.5103315030064112 1.0000   
         C         C         1.0       0.23264721889185344           0.4546379154303309 0.5084989070371596 1.0000   
         H         H         1.0       0.22317711626369668           0.4305963533047384 0.5669964399871146 1.0000   
         H         H         1.0       0.19728217067125917           0.46064104450424836          0.5669492268861275 1.0000   
         H         H         1.0       0.220538521635215   0.48727220781926317           0.4940773658061139 1.0000   
         H         H         1.0       0.23611497292629363           0.44691406261459155          0.4895336079980411 1.0000   
         C         C         1.0       0.2343826052707787  0.549720647069093   0.5094497236921842 1.0000   
         C         C         1.0       0.19965291235841778           0.5230426985017371 0.5141000396917539 1.0000   
         C         C         1.0       0.17324298420578635           0.5222693980586286 0.5014348576704937 1.0000   
         C         C         1.0       0.18023817589044241           0.5419432860377896 0.4827463546775981 1.0000   
         C         C         1.0       0.21313605956734732           0.5664390763291727 0.4772906005399611 1.0000   
         C         C         1.0       0.2402954612210383  0.5708568688339317  0.4907858866783514 1.0000   
         C         C         1.0       0.1906200518220291  0.49624789888723675           0.5341186082305407 1.0000   
         C         C         1.0       0.20325436802310742           0.5200550520631946 0.557862744970177  1.0000   
         C         C         1.0       0.18109741788790087           0.5269523016702089 0.5685761021835757 1.0000   
         C         C         1.0       0.1908201153343661  0.546960250624359   0.5874161379057738 1.0000   
         C         C         1.0       0.22176586544252852           0.5582706207119809 0.6007395225824814 1.0000   
         C         C         1.0       0.24507996471050028           0.5533552415421675 0.5891070481255745 1.0000   
         C         C         1.0       0.23507408624532578           0.5340783199431794 0.5684584141019499 1.0000   
         C         C         1.0       0.1393552193589506  0.4472045727390071  0.5113857193781047 1.0000   
         C         C         1.0       0.6062944702484224  0.3626604397938432  0.5930133617377477 1.0000   
         C         C         1.0       0.5769959941625579  0.363615458012643   0.5924683710249505 1.0000   
         C         C         1.0       0.5792384485446463  0.3891031402733951  0.6047725657570006 1.0000   
         C         C         1.0       0.6107445062506208  0.416456652714127   0.6128237214202273 1.0000   
         C         C         1.0       0.15128198896972148           0.46493222744658197          0.532682639119364  1.0000   
         C         C         1.0       0.5437046596823114  0.3353255763956523  0.578814492576609  1.0000   
         C         C         1.0       0.5961047843315285  0.3848627959637413  0.5089145379233577 1.0000   
         C         C         1.0       0.5904579743256398  0.3560147722771535  0.5156448711323685 1.0000   
         C         C         1.0       0.5715939542891767  0.3390387023775771  0.5363710771537671 1.0000   
         C         C         1.0       0.5562611754421403  0.3505929886478764  0.551167531448973  1.0000   
         C         C         1.0       0.5594176522384191  0.37937937608214495           0.5435590685557207 1.0000   
         C         C         1.0       0.5796808195322927  0.3961777859709793  0.5221869788700562 1.0000   
         C         C         1.0       0.5083738600758859  0.33116058961296224           0.5864486282851478 1.0000   
         C         C         1.0       0.5010778476647251  0.3296769586258552  0.6110964353806204 1.0000   
         C         C         1.0       0.468126488355722   0.3201506019765454  0.6188523650679567 1.0000   
         C         C         1.0       0.44236843944333254           0.3117947086988149 0.6023445598249043 1.0000   
         C         C         1.0       0.44887615404715236           0.3146205228614562 0.5778916313114377 1.0000   
         C         C         1.0       0.4798692537974164  0.32073698147760793           0.5696717869954273 1.0000   
         C         C         1.0       0.5138052595519769  0.2737924060032393  0.5656911584976625 1.0000   
         C         C         1.0       0.5026774348410605  0.24189311509463254           0.5701416904061694 1.0000   
         C         C         1.0       0.5089036273075814  0.232390113765999   0.5916177720552709 1.0000   
         C         C         1.0       0.530307726059483   0.25642356930860727           0.608737218095051  1.0000   
         C         C         1.0       0.5425133965179739  0.2891100277526218  0.6047467399649914 1.0000   
         C         C         1.0       0.5358414262079868  0.2988581182618282  0.5825001495110957 1.0000   
         H         H         1.0       0.25688413394337506           0.5546108548233271 0.5192618400043273 1.0000   
         H         H         1.0       0.14568897863479932           0.504294730523669  0.5052128903396133 1.0000   
         H         H         1.0       0.16026794079134296           0.5421256208550402 0.47303674018129915          1.0000   
         H         H         1.0       0.2682546727484008  0.5893827158176304  0.4861811368834635 1.0000   
         H         H         1.0       0.15744911276613974           0.5194951419757882 0.5597072508439335 1.0000   
         H         H         1.0       0.1713017785380567  0.550218580925817   0.5944373256630425 1.0000   
         H         H         1.0       0.26845193727884775           0.5603265692866086 0.5990916654127015 1.0000   
         H         H         1.0       0.25550856530470645           0.5328031435454442 0.5611652590353061 1.0000   
         H         H         1.0       0.15160488576696168           0.453771677851973  0.4939681870549648 1.0000   
         H         H         1.0       0.6051110421214752  0.34092306552475704           0.5852286738916602 1.0000   
         H         H         1.0       0.5561456793503197  0.3894702796069812  0.6048843309118355 1.0000   
         H         H         1.0       0.6084661626869511  0.4345440436852617  0.6220712364237633 1.0000   
         H         H         1.0       0.6012654530281737  0.3458041562512776  0.5056453718166745 1.0000   
         H         H         1.0       0.5710969079720022  0.3181482985787884  0.540976504773747  1.0000   
         H         H         1.0       0.5491576873999765  0.3902268637619884  0.5544085748210444 1.0000   
         H         H         1.0       0.5838489117849336  0.4201190529016529  0.5161184864434535 1.0000   
         H         H         1.0       0.5214633462220941  0.3358446091867238  0.6260145026605913 1.0000   
         H         H         1.0       0.46528777783868436           0.32314979370974334          0.6381086559487006 1.0000   
         H         H         1.0       0.4290612208040483  0.3068005334760105  0.5630386906807829 1.0000   
         H         H         1.0       0.4812375704401564  0.3174871807555217  0.5502486661227876 1.0000   
         H         H         1.0       0.5098013014612675  0.28122119479104196           0.5484092828074172 1.0000   
         H         H         1.0       0.4853607113644969  0.2275006329012065  0.5565251735569177 1.0000   
         H         H         1.0       0.5387718774371869  0.25271217775961835           0.6265064032255128 1.0000   
         H         H         1.0       0.556639916748349   0.307873357013806   0.6183681271402311 1.0000   
         C         C         1.0       0.3721181534708644  0.5151684643405041  0.43429921877408134          1.0000   
         C         C         1.0       0.3423047198021651  0.5064359186349364  0.42139375284964786          1.0000   
         C         C         1.0       0.3358061284449541  0.5299665295457388  0.4217879946652262 1.0000   
         C         C         1.0       0.35793521321191024           0.5621145428148647 0.430375393761498  1.0000   
         C         C         1.0       0.3879419008371541  0.5695502612302367  0.442319661113695  1.0000   
         C         C         1.0       0.3951153235615552  0.5457236457421214  0.4444190271152199 1.0000   
         H         H         1.0       0.32451835426538733           0.48290532665003155          0.41274228262329704          1.0000   
         H         H         1.0       0.3149272105209765  0.5242585394715258  0.41004851937561704          1.0000   
         H         H         1.0       0.40541121123234614           0.5957559414664165 0.44591654503272843          1.0000   
         H         H         1.0       0.419040490156533   0.5501959854016548  0.44937477333369796          1.0000   
         C         C         1.0       0.2869123905508712  0.5538497130491669  0.4377501557117235 1.0000   
         C         C         1.0       0.3129731827055255  0.5785183280390293  0.4217079234102108 1.0000   
         C         C         1.0       0.304335826539825   0.5971421541975072  0.40729871895744496          1.0000   
         C         C         1.0       0.27267375128530896           0.5921476281554446 0.41033838767987224          1.0000   
         C         C         1.0       0.2477252873078083  0.5687592549211244  0.42584951180398056          1.0000   
         C         C         1.0       0.2540572426484041  0.5472892572032547  0.43830981544591685          1.0000   
         C         C         1.0       0.35228032552867156           0.5898119886464352 0.42214435250064636          1.0000   
         C         C         1.0       0.3703771967168511  0.597838602854741   0.397172490109451  1.0000   
         C         C         1.0       0.4067069725763062  0.617759015240592   0.3951835647122235 1.0000   
         C         C         1.0       0.4234387209417468  0.615526679836939   0.37529953090275714          1.0000   
         C         C         1.0       0.4048858408543154  0.5978623868019267  0.3552815187013253 1.0000   
         C         C         1.0       0.3682159176508447  0.5816723063491775  0.3553385800450958 1.0000   
         C         C         1.0       0.3519145188073185  0.5815312802676103  0.3761403260247543 1.0000   
         C         C         1.0       0.3269207739036121  0.010584556506790355         0.5485265714993031 1.0000   
         C         C         1.0       0.32961454935622164           0.038942184000859026         0.5548564659503799 1.0000   
         C         C         1.0       0.3210133488524001  0.05393758858617104           0.5371019571709138 1.0000   
         C         C         1.0       0.30716851177712723           0.03742005674006821          0.5154365272772724 1.0000   
         C         C         1.0       0.30607962721252874           0.010307148092984608         0.5082864398732372 1.0000   
         C         C         1.0       0.31927318481305306           0.9990678983101343 0.5252404486345051 1.0000   
         C         C         1.0       0.33121549924148125           0.0925035199993327 0.5415506163475127 1.0000   
         C         C         1.0       0.23149348799152764           0.07726465239973801          0.5591968736841622 1.0000   
         C         C         1.0       0.25588202619880335           0.08414623395508358          0.5769699144490955 1.0000   
         C         C         1.0       0.28522985102629145           0.08647570074619138          0.5733635501117252 1.0000   
         C         C         1.0       0.2951297080125674  0.08576648695889189           0.5493582399862628 1.0000   
         C         C         1.0       0.2691758987708472  0.0746555495879575  0.531583157657216  1.0000   
         C         C         1.0       0.23787541371437215           0.06964439176710924          0.5359467138007834 1.0000   
         C         C         1.0       0.34511725120553816           0.1154448472771343 0.5177180714343117 1.0000   
         C         C         1.0       0.36734002420015455           0.11493524677710298          0.5020103570841294 1.0000   
         C         C         1.0       0.38499691927091717           0.1394378848120176 0.48474592176461057          1.0000   
         C         C         1.0       0.3785790627601407  0.16280530245761138           0.47998862612493925          1.0000   
         C         C         1.0       0.35537225576697307           0.16245100163402207          0.49586948895638033          1.0000   
         C         C         1.0       0.3395562852248327  0.1399455065879311  0.514324111782394  1.0000   
         C         C         1.0       0.3678375036909374  0.13933571507971226           0.5742239225073036 1.0000   
         C         C         1.0       0.39751539767424493           0.1622941458642164 0.5870708055539245 1.0000   
         C         C         1.0       0.4248272655753215  0.15805048196311225           0.587066883855062  1.0000   
         C         C         1.0       0.4220798908885168  0.13309457275642464           0.5730784143507097 1.0000   
         C         C         1.0       0.3923240243266092  0.11134724967465799           0.5598263925837594 1.0000   
         C         C         1.0       0.3645357136685197  0.11492094589855198           0.5593273227758697 1.0000   
         H         H         1.0       0.29359926387256513           0.5394530593430918 0.4496271560128205 1.0000   
         H         H         1.0       0.32427273818263663           0.6178717586649648 0.39630207243401167          1.0000   
         H         H         1.0       0.2692056221464985  0.6093175143217232  0.3996674836972465 1.0000   
         H         H         1.0       0.2360862688079913  0.5299130283085474  0.45162362529596656          1.0000   
         H         H         1.0       0.42404350344708663           0.6323013672886908 0.4095032204059289 1.0000   
         H         H         1.0       0.4522809072772205  0.6301339788002691  0.3738709954066021 1.0000   
         H         H         1.0       0.3528566315290517  0.5711646712814864  0.34016973028937303          1.0000   
         H         H         1.0       0.3241966686449052  0.5628810232664888  0.3748159526990512 1.0000   
         H         H         1.0       0.3573273176160053  0.5908509242390253  0.47187866826316316          1.0000   
         H         H         1.0       0.3404329412629517  0.05007873676358132           0.5717492864122296 1.0000   
         H         H         1.0       0.29879059845044154           0.04846770844491233          0.5023167681067717 1.0000   
         H         H         1.0       0.2992682807938295  0.00459211467586762           0.4881643479634403 1.0000   
         H         H         1.0       0.2501927943321683  0.08598105806140577           0.5963828273873134 1.0000   
         H         H         1.0       0.30249521295848814           0.09324243270947741          0.5889139927619451 1.0000   
         H         H         1.0       0.2744950500916323  0.07067350467556022           0.5131046912534933 1.0000   
         H         H         1.0       0.21577857868738584           0.06000419379930478          0.5216842374888685 1.0000   
         H         H         1.0       0.3735264225674085  0.09685268363273591           0.5045940375418734 1.0000   
         H         H         1.0       0.4015464661494474  0.13795333682735772           0.47147983804658805          1.0000   
         H         H         1.0       0.3463890754748244  0.17817677603056342           0.49226268774427256          1.0000   
         H         H         1.0       0.32353704853148557           0.1425495114174854 0.5260736554373352 1.0000   
         H         H         1.0       0.3511025761982924  0.14702524083348653           0.5713628807287796 1.0000   
         H         H         1.0       0.3998242845045316  0.18234521946651902           0.5973048815445537 1.0000   
         H         H         1.0       0.4426045810636768  0.12929236361979388           0.5751665092959086 1.0000   
         H         H         1.0       0.39035271450768694           0.09214660616034376          0.5497867645635529 1.0000   
         C         C         1.0       0.44135988558714345           0.6278841911231219 0.8153654046205442 1.0000   
         C         C         1.0       0.42054054429000765           0.6392251228331788 0.814100000473676  1.0000   
         C         C         1.0       0.4148778491174162  0.6496631065559423  0.79299883157638   1.0000   
         C         C         1.0       0.4350147150418319  0.6550367152932031  0.7726562044794879 1.0000   
         C         C         1.0       0.45712622961530647           0.6458651569514267 0.774034895833385  1.0000   
         C         C         1.0       0.461204448838639   0.6320413986139363  0.7957294314737263 1.0000   
         H         H         1.0       0.4048657371678337  0.6357861291720218  0.8304113457018407 1.0000   
         H         H         1.0       0.3957236575107006  0.6540278348514589  0.7960140555652288 1.0000   
         H         H         1.0       0.2831465135316952  0.1458325149878978  0.7568978784668976 1.0000   
         H         H         1.0       0.3384332885582047  0.20256682144368435           0.7528763800919213 1.0000   
         C         C         1.0       0.21639281971373941           0.05678451183182465          0.7399998389580655 1.0000   
         C         C         1.0       0.2525589259228993  0.08053895501340591           0.740146506311423  1.0000   
         C         C         1.0       0.2683826923601278  0.09486945736709673           0.7183664169874971 1.0000   
         C         C         1.0       0.24850768447460242           0.09353279801061154          0.6990739346181772 1.0000   
         C         C         1.0       0.21277052773468547           0.07236984348941311          0.7001016433331617 1.0000   
         C         C         1.0       0.1962207756936166  0.05279463870036328           0.7198180848705216 1.0000   
         C         C         1.0       0.43144455385187364           0.6702903265003245 0.7472151732836002 1.0000   
         C         C         1.0       0.418222786716524   0.6933702908163409  0.7500700412096518 1.0000   
         C         C         1.0       0.3964661461313015  0.6967002264541173  0.7341792380137139 1.0000   
         C         C         1.0       0.38852907558178    0.7194664985888021  0.7394972516219058 1.0000   
         C         C         1.0       0.22519117769167077           0.07902361630948906          0.8342630779029978 1.0000   
         C         C         1.0       0.21666730455763966           0.08844031887517412          0.8135081534053855 1.0000   
         C         C         1.0       0.23176129202072934           0.09031273166013687          0.7915786894922757 1.0000   
         C         C         1.0       0.41109213405976874           0.6265869930385639 0.7139392646371309 1.0000   
         C         C         1.0       0.3854360876568278  0.5980609512163014  0.7038712221279915 1.0000   
         C         C         1.0       0.35229884023605235           0.5772733388292015 0.7126812739036055 1.0000   
         C         C         1.0       0.34413218245800764           0.5896806789571262 0.7318942547924626 1.0000   
         C         C         1.0       0.36861570284187156           0.6190938001471555 0.7428805466359317 1.0000   
         C         C         1.0       0.4019065433369968  0.6376816614031763  0.7341781301104985 1.0000   
         C         C         1.0       0.32359487790596875           0.5423189842426439 0.6993868878054912 1.0000   
         C         C         1.0       0.27986620115793676           0.5798781126956456 0.6510814950652308 1.0000   
         C         C         1.0       0.31089336446720206           0.5853674494694708 0.6449202238640325 1.0000   
         C         C         1.0       0.3236732392060503  0.5727731666860556  0.6597293323471177 1.0000   
         C         C         1.0       0.3081984170897077  0.5570632539105247  0.6818259683342697 1.0000   
         C         C         1.0       0.27618496234601464           0.5523651343111189 0.6872802784801841 1.0000   
         C         C         1.0       0.2631510778020924  0.5657749804765528  0.6730309711341984 1.0000   
         C         C         1.0       0.29727978699766844           0.5115587082046662 0.7168649535975886 1.0000   
         C         C         1.0       0.3077347180903132  0.5094020822944294  0.7392750203744141 1.0000   
         C         C         1.0       0.28891065849118586           0.4844025059945455 0.754874605023817  1.0000   
         C         C         1.0       0.25732832227011226           0.45620563110962004          0.747013365271512  1.0000   
         C         C         1.0       0.24566849590877451           0.45714415197435626          0.7233801645363505 1.0000   
         C         C         1.0       0.2652362331163446  0.4854891037861599  0.7083942343872905 1.0000   
         C         C         1.0       0.3251650789725007  0.5082714449508468  0.6631839708792275 1.0000   
         C         C         1.0       0.3331947339259236  0.4875387863784773  0.653529549180475  1.0000   
         C         C         1.0       0.3545440782249634  0.48200126997846554           0.6667287764356853 1.0000   
         C         C         1.0       0.3710448267367382  0.5019364355604286  0.6869531464564689 1.0000   
         C         C         1.0       0.36363808544240417           0.5221750044736784 0.6964914415308812 1.0000   
         C         C         1.0       0.3391583778738347  0.5243940391176128  0.6852369664182122 1.0000   
         H         H         1.0       0.20552493677337694           0.04233717717523233          0.756513825376286  1.0000   
         H         H         1.0       0.44415517909810986           0.6935778506035126 0.696708830578995  1.0000   
         H         H         1.0       0.26239469364039764           0.10722877538246779          0.6837500622543471 1.0000   
         H         H         1.0       0.16748799437618309           0.03792487159907898          0.7235578317478019 1.0000   
         H         H         1.0       0.38365400063544414           0.6778863717455271 0.7215341749459911 1.0000   
         H         H         1.0       0.3693757472322743  0.7192351322231908  0.7276358785238404 1.0000   
         H         H         1.0       0.19722187377228817           0.09481089298075007          0.8128349883125034 1.0000   
         H         H         1.0       0.22734074780121763           0.10113740765625434          0.7760989714620007 1.0000   
         H         H         1.0       0.43611175232213484           0.63822690101093   0.706735345535493  1.0000   
         H         H         1.0       0.3894283542488361  0.5881070259227953  0.6878937662615627 1.0000   
         H         H         1.0       0.3162400744091769  0.5741108561222146  0.7370401853946327 1.0000   
         H         H         1.0       0.3594898348422477  0.6270629951537997  0.7581149227695623 1.0000   
         H         H         1.0       0.321265512856791   0.5917452725042437  0.627619741565158  1.0000   
         H         H         1.0       0.34772631431034096           0.5755089969868699 0.6540010647283983 1.0000   
         H         H         1.0       0.2636074085675854  0.5406745411565453  0.7049918350593483 1.0000   
         H         H         1.0       0.23892643413175466           0.5617981129429153 0.678037352469898  1.0000   
         H         H         1.0       0.3340591794119988  0.5286287705284635  0.7445712743577725 1.0000   
         H         H         1.0       0.29777063953428595           0.4867233561837345 0.7737062593233712 1.0000   
         H         H         1.0       0.22172355452728185           0.43462316782770233          0.7168279659858933 1.0000   
         H         H         1.0       0.2566166597624466  0.4850361236140194  0.6896105234892169 1.0000   
         H         H         1.0       0.3042380138719423  0.5078585017156665  0.6542612829706834 1.0000   
         H         H         1.0       0.3191768244896222  0.4712536387977698  0.6381690602335361 1.0000   
         H         H         1.0       0.3866810472261249  0.4959081760964404  0.6982605074084037 1.0000   
         H         H         1.0       0.37177794487571963           0.532305049798661  0.7153061019195035 1.0000   
         C         C         1.0       0.3475299767239578  0.2852346183325663  0.6146014685937872 1.0000   
         C         C         1.0       0.3305907453606126  0.273272870948809   0.5933308759320483 1.0000   
         C         C         1.0       0.29607714468835195           0.24896655202614937          0.5928860075973832 1.0000   
         C         C         1.0       0.27700745703476404           0.23672579836384627          0.6145673331914515 1.0000   
         C         C         1.0       0.2956486904430305  0.2508772175131681  0.637048884525059  1.0000   
         C         C         1.0       0.3305832321428219  0.27309658792049674           0.6371590133799543 1.0000   
         H         H         1.0       0.3457792023675361  0.281887820980772   0.5769405134462756 1.0000   
         H         H         1.0       0.2845796446949609  0.24433119491792726           0.5745020882369025 1.0000   
         H         H         1.0       0.2811804360478802  0.24262634829562216           0.6547619760842418 1.0000   
         H         H         1.0       0.34772299357354847           0.28279370763562217          0.6516509786041055 1.0000   
         C         C         1.0       0.24223208422222725           0.17302796024383918          0.6458756150467794 1.0000   
         C         C         1.0       0.22068910401606867           0.18124642558827272          0.6352104684700093 1.0000   
         C         C         1.0       0.18705120290071042           0.16527820096279985          0.6434234453042466 1.0000   
         C         C         1.0       0.17508849357247738           0.14138168816336796          0.6615327557621444 1.0000   
         C         C         1.0       0.19540696205930094           0.12998812080521055          0.6691666634056924 1.0000   
         C         C         1.0       0.2287948556698016  0.14625546745175688           0.6608272680259406 1.0000   
         C         C         1.0       0.23803435408222198           0.2092515538711774 0.6144089636515689 1.0000   
         C         C         1.0       0.22607253350519385           0.1834748202278618 0.5918968847043319 1.0000   
         C         C         1.0       0.19298331339899577           0.16642733893125836          0.5824371150798181 1.0000   
         C         C         1.0       0.1817150400801119  0.13907605052065755           0.5686171492278178 1.0000   
         C         C         1.0       0.20119056380333833           0.12689398972247862          0.5644300820216682 1.0000   
         C         C         1.0       0.23739238109038158           0.14732463431671916          0.5706821815211046 1.0000   
         C         C         1.0       0.2488704394945288  0.17467891164359836           0.5854423750515172 1.0000   
         C         C         1.0       0.21727299111767495           0.2405372644181381 0.637262680619988  1.0000   
         C         C         1.0       0.21462891751463656           0.26754932810245563          0.6376424433396384 1.0000   
         C         C         1.0       0.21130434968217401           0.28202705788856813          0.6174118253485658 1.0000   
         C         C         1.0       0.21355087715647042           0.26992876068817895          0.5962804130189783 1.0000   
         C         C         1.0       0.22243401375181232           0.24765306040123608          0.5943231792426181 1.0000   
         C         C         1.0       0.22426300123222967           0.23186184130998433          0.6155499201814497 1.0000   
         C         C         1.0       0.2058075751379593  0.3118205220525026  0.6196797340169211 1.0000   
         C         C         1.0       0.11055990712302954           0.26636020630936885          0.6631107015887322 1.0000   
         C         C         1.0       0.1427932815405572  0.2938210218708997  0.6713583274079183 1.0000   
         C         C         1.0       0.170781495572232   0.30722471569012405           0.6577644896356034 1.0000   
         C         C         1.0       0.1718770975959647  0.2949666141940395  0.6350988030970467 1.0000   
         C         C         1.0       0.14017283687148    0.26692636520260987           0.6271226502959424 1.0000   
         C         C         1.0       0.10960064466704922           0.2542486531876896 0.6405480490844849 1.0000   
         C         C         1.0       0.2047384552650608  0.3302049697410244  0.5951659394477525 1.0000   
         C         C         1.0       0.23044696069995013           0.3403333220189257 0.5778091164725399 1.0000   
         C         C         1.0       0.2292934010176825  0.353374568956486   0.5564480698423817 1.0000   
         C         C         1.0       0.20528669010908446           0.3607347545374528 0.5519963227502124 1.0000   
         C         C         1.0       0.1805685428113348  0.3523237070691091  0.5702788497617275 1.0000   
         C         C         1.0       0.18061585458963184           0.3375051199768295 0.5913840355757526 1.0000   
         C         C         1.0       0.24327714292619637           0.3733369216670304 0.6392030358013309 1.0000   
         C         C         1.0       0.2713883303821894  0.398313491422738   0.651818936484747  1.0000   
         C         C         1.0       0.30014097802629214           0.3980598362321575 0.6566598449962341 1.0000   
         C         C         1.0       0.3006831144065318  0.3713044964856892  0.6482839318981343 1.0000   
         C         C         1.0       0.27273620792761444           0.3461615083713359 0.6365563965415714 1.0000   
         C         C         1.0       0.2417564550882445  0.3445744912038471  0.6326054223671564 1.0000   
         H         H         1.0       0.26867026831209084           0.18409977882135306          0.6398459050442223 1.0000   
         H         H         1.0       0.16800646815817832           0.16936766988965798          0.6373533910443531 1.0000   
         H         H         1.0       0.14890277545864095           0.12829322876389646          0.6658487192428689 1.0000   
         H         H         1.0       0.2459183631918533  0.13924966594480526           0.6659438842164663 1.0000   
         H         H         1.0       0.17516609390033314           0.17167036530390808          0.5884322410169396 1.0000   
         H         H         1.0       0.15379377616069284           0.12410678577775254          0.5631088425355923 1.0000   
         H         H         1.0       0.2555653477128678  0.14078755705573953           0.565288340288186  1.0000   
         H         H         1.0       0.27488064513113813           0.18413000806012475          0.5914146804630274 1.0000   
         H         H         1.0       0.21908134365850668           0.22937674367085165          0.6543381899131533 1.0000   
         H         H         1.0       0.2134086001435958  0.27914829694360177           0.6550370010321314 1.0000   
         H         H         1.0       0.20666975469341786           0.27862355216482637          0.5814519592425627 1.0000   
         H         H         1.0       0.2279541500845877  0.24234094347004723           0.5774332558314367 1.0000   
         H         H         1.0       0.14430077311679904           0.3037135418960814 0.6887362645482216 1.0000   
         H         H         1.0       0.1943383465997307  0.3284734770051494  0.6649568208466924 1.0000   
         H         H         1.0       0.13644453557953223           0.25522911158675193          0.6103607843417634 1.0000   
         H         H         1.0       0.08616128966439789           0.2331091710357869 0.6329566549364267 1.0000   
         H         H         1.0       0.2495434098722453  0.33428054932624984           0.5800585590567666 1.0000   
         H         H         1.0       0.24857605744833156           0.35920353860778326          0.5437817099456408 1.0000   
         H         H         1.0       0.1590478071137914  0.3562988908948975  0.5683140534990305 1.0000   
         H         H         1.0       0.16556924210232246           0.3370982778390664 0.6060437646605386 1.0000   
         H         H         1.0       0.2211770902095081  0.37441291626207973           0.6378292129905961 1.0000   
         H         H         1.0       0.2702086983982771  0.4180270315848224  0.658988091695513  1.0000   
         H         H         1.0       0.3205315809452728  0.36861426099456546           0.6512643223758443 1.0000   
         H         H         1.0       0.27473932895933395           0.32771102714590555          0.6279525589468417 1.0000   
         C         C         1.0       0.1921054103953871  0.07469613713139833           0.6790939384129762 1.0000   
         C         C         1.0       0.18037612446970686           0.09858765679942948          0.6855946146297859 1.0000   
         H         H         1.0       0.2045900919962995  0.079663315558272   0.6614147971930762 1.0000   
         H         H         1.0       0.1687075052169446  0.049997911528765204         0.6765947823468275 1.0000   
         H         H         1.0       0.18593990102411173           0.10598908493796251          0.7065272208017471 1.0000   
         H         H         1.0       0.15157517767666226           0.08536098435250072          0.6858607913272879 1.0000   
         C         C         1.0       0.3298747847454595  0.4236155131906041  0.673807541900823  1.0000   
         C         C         1.0       0.3601443080049133  0.45625546658571425           0.6619423019118492 1.0000   
         H         H         1.0       0.3195299885240144  0.42808615305706854           0.6904336775573899 1.0000   
         H         H         1.0       0.3441468945458259  0.414778664038124   0.6811082892272797 1.0000   
         H         H         1.0       0.3584778059383493  0.45183857592311766           0.6412121556009835 1.0000   
         H         H         1.0       0.38500148432184667           0.4627836211551158 0.6694541344360434 1.0000   
         C         C         1.0       0.19672043059089903           0.07235670271786687          0.5637730963548965 1.0000   
         C         C         1.0       0.1872811184162376  0.09498014905919305           0.5493818949444117 1.0000   
         H         H         1.0       0.19589364332219006           0.07524546033848445          0.5836615312148974 1.0000   
         H         H         1.0       0.17901890770664505           0.04726264571750316          0.5588398981163162 1.0000   
         H         H         1.0       0.15749361406874243           0.08128469994114806          0.5473140270216551 1.0000   
         H         H         1.0       0.19697597505307454           0.09698325933165397          0.5304396855247702 1.0000   
         C         C         1.0       0.22645540343614162           0.5724672478476414 0.6264880893658732 1.0000   
         C         C         1.0       0.2651026550931143  0.596080425592584   0.6347789124322997 1.0000   
         H         H         1.0       0.21571275332006015           0.5870312388892613 0.624621498162487  1.0000   
         H         H         1.0       0.21226470187636906           0.5533177174603228 0.6400259805191505 1.0000   
         H         H         1.0       0.28447146389470496           0.6099705082239246 0.6194618908887602 1.0000   
         H         H         1.0       0.26738690947318156           0.6161693903028086 0.645297294043656  1.0000   
         C         C         1.0       0.2177495537464293  0.5868870864077511  0.4549457890532557 1.0000   
         C         C         1.0       0.21646749408203797           0.5695649215478134 0.43019895613120535          1.0000   
         H         H         1.0       0.19918581726674434           0.5929973733607881 0.4520237804859361 1.0000   
         H         H         1.0       0.24505913439530358           0.6103729352640744 0.45628741299887937          1.0000   
         H         H         1.0       0.19104683363194566           0.5450372568370094 0.43011307997388115          1.0000   
         H         H         1.0       0.21206570435167568           0.5826983183548581 0.41551338333541615          1.0000   
         C         C         1.0       0.4914910441205414  0.19440017133709095           0.5953350059063788 1.0000   
         C         C         1.0       0.4546190887317274  0.1753256200776774  0.6061525070206902 1.0000   
         H         H         1.0       0.4953012741952102  0.18496369471794366           0.5781265823975936 1.0000   
         H         H         1.0       0.5087819693354039  0.19242817797341644           0.6087785514843577 1.0000   
         H         H         1.0       0.4531063009220868  0.19286333555620827           0.616401382598374  1.0000   
         H         H         1.0       0.45092003903141514           0.15778368029330286          0.6204283586495218 1.0000   
         C         C         1.0       0.240615645287155   0.41264636743251776           0.5280143767478005 1.0000   
         C         C         1.0       0.20794707916181376           0.3781338867503134 0.5274672619538509 1.0000   
         H         H         1.0       0.2571042944969905  0.41686510563681306           0.5442193728537917 1.0000   
         H         H         1.0       0.25356800559695    0.41439780820468797           0.5111538704381569 1.0000   
         H         H         1.0       0.20429647729237413           0.36313117640151954          0.5113342589577359 1.0000   
         H         H         1.0       0.18478067755190428           0.3791564448238952 0.5267774658195034 1.0000   
         C         C         1.0       0.38736357689499873           0.30945740527552507          0.6147518985044067 1.0000   
         C         C         1.0       0.40482991687494496           0.29044325352591904          0.6095820948435975 1.0000   
         H         H         1.0       0.3953291049642527  0.32328942585818005           0.6331226689264108 1.0000   
         H         H         1.0       0.3939943584719983  0.32925766760478786           0.6014357341125094 1.0000   
         H         H         1.0       0.3886069987002557  0.2703735818298593  0.5950832536373665 1.0000   
         H         H         1.0       0.4016322579265314  0.2779286489155667  0.6268627808158088 1.0000   
         C         C         1.0       0.06787102993762076           0.26462159988268397          0.698249891722982  1.0000   
         C         C         1.0       0.07374901446271774           0.2507501854984672 0.6745046171651178 1.0000   
         H         H         1.0       0.039185355350569766          0.2526434121116678 0.7004083345373185 1.0000   
         H         H         1.0       0.07603345395948966           0.2889833504927554 0.6947643445517813 1.0000   
         H         H         1.0       0.05586502350987912           0.24722574371563646          0.6609987110390213 1.0000   
         H         H         1.0       0.062294202455976   0.2229366517601003  0.6785097065843905 1.0000   
         C         C         1.0       0.24148457807506732           0.3973347828981998 0.7632507129761905 1.0000   
         C         C         1.0       0.23405354703165274           0.42518775563353534          0.76353776676065   1.0000   
         H         H         1.0       0.2672918610493833  0.40665726833853977           0.771506433731961  1.0000   
         H         H         1.0       0.2475864549655696  0.39441968394125065           0.7436549333765327 1.0000   
         H         H         1.0       0.23448114392245037           0.4314616006288038 0.78205368734665   1.0000   
         H         H         1.0       0.20827561450034152           0.41424404133967724          0.7559349632846442 1.0000   
         C         C         1.0       0.41977414900394217           0.2449781740959363 0.7781850187030555 1.0000   
         C         C         1.0       0.40323996915977556           0.21921036703227237          0.7574406583729558 1.0000   
         H         H         1.0       0.40090006478977774           0.2504286097865425 0.785468060930206  1.0000   
         H         H         1.0       0.43886863710422436           0.2719416944580838 0.7696830075835603 1.0000   
         H         H         1.0       0.39779697353287324           0.2297461949598952 0.7415254117456688 1.0000   
         H         H         1.0       0.43235016961926076           0.6201328519298944 0.8560025479066798 1.0000   
         C         C         1.0       0.20520566861562953           0.07020224414401288          0.8575681285903439 1.0000   
         C         C         1.0       0.18814180364321625           0.08905063034177996          0.864716937889894  1.0000   
         H         H         1.0       0.18340560918396742           0.04390995110708573          0.8547933190288078 1.0000   
         H         H         1.0       0.21964511157687358           0.07069470000455835          0.8741033656037493 1.0000   
         H         H         1.0       0.18419838092323038           0.10172470573797397          0.8493156903334712 1.0000   
         H         H         1.0       0.16338255099476123           0.07425124654288284          0.8740624612355473 1.0000   
         C         C         1.0       0.13864645200186287           0.14836066804950507          0.8109930317921109 1.0000   
         C         C         1.0       0.11334458457502075           0.1238917658108904 0.8318148379899923 1.0000   
         H         H         1.0       0.13206299715896905           0.13351438645165414          0.7942117875359728 1.0000   
         H         H         1.0       0.16687937527685437           0.15674087842755738          0.8141820480924365 1.0000   
         H         H         1.0       0.08790664012941313           0.1203031228614433 0.8266320792559791 1.0000   
         H         H         1.0       0.10632915667466088           0.09757405654956203          0.8330978701541255 1.0000   
         C         C         1.0       0.45005780092786546           0.28498922399322546          0.9300885971091472 1.0000   
         C         C         1.0       0.429987627002076   0.2967621004263878  0.9150162149442451 1.0000   
         H         H         1.0       0.4337634147437281  0.27082306542400997           0.946323561071106  1.0000   
         H         H         1.0       0.4721646048482612  0.3062526920881228  0.9399836075569685 1.0000   
         H         H         1.0       0.44001406749667354           0.3008382881325428 0.8957724689034002 1.0000   
         H         H         1.0       0.4386271517629742  0.3228078106131538  0.9191019606904826 1.0000   
         C         C         1.0       0.4001404595831818  0.4806468624081963  0.06844079352801691          1.0000   
         C         C         1.0       0.4209639966619006  0.5002862588990863  0.09176942574560167          1.0000   
         H         H         1.0       0.4178858223559324  0.4932664127828132  0.05349774460068036          1.0000   
         H         H         1.0       0.3783137914848956  0.482512450294956   0.06680553884752194          1.0000   
         H         H         1.0       0.4454811896801327  0.5019892054721293  0.08780440081121   1.0000   
         H         H         1.0       0.4268894137004049  0.5253835549534228  0.08857823234532569          1.0000   
         C         C         1.0       0.4226380461139865  0.2665633026310406  0.2317789094697162 1.0000   
         C         C         1.0       0.4156663577305725  0.23318892029427224           0.22592147777516597          1.0000   
         H         H         1.0       0.4443009349880161  0.2799681045275921  0.24468639053684274          1.0000   
         H         H         1.0       0.39849864305955063           0.25794177464749835          0.24138081988383758          1.0000   
         H         H         1.0       0.3963528144310255  0.22127737018988988           0.21122851348031577          1.0000   
         H         H         1.0       0.40601074898586786           0.2169026507282672 0.2421967090454855 1.0000   
         C         C         1.0       0.18227191233684042           0.5538502716526642 0.2439100647651124 1.0000   
         C         C         1.0       0.5492628016432356  0.5037318241741843  0.19289947382101674          1.0000   
         H         H         1.0       0.20596712685178392           0.5784618103062689 0.24228615705935128          1.0000   
         H         H         1.0       0.1724441144078973  0.549592108196568   0.22466246566809445          1.0000   
         H         H         1.0       0.5423556652566497  0.520612546226835   0.18898165862382627          1.0000   
         H         H         1.0       0.5533880120144498  0.5042503289809669  0.21188370796837863          1.0000   
         C         C         1.0       0.14959247899573339           0.32745176525818576          0.24443072560312887          1.0000   
         C         C         1.0       0.6411545785190165  0.3212452532162865  0.1620630968559834 1.0000   
         H         H         1.0       0.17026792922693895           0.3321017144248472 0.23291521252534114          1.0000   
         H         H         1.0       0.14544206278873725           0.30835768780672645          0.2559806602574411 1.0000   
         H         H         1.0       0.6641294478590971  0.33991203448818746           0.17443439491093346          1.0000   
         H         H         1.0       0.6522097910466187  0.31167782308025443           0.14881390519921656          1.0000   
         C         C         1.0       0.25532316044996645           0.33443871920164087          0.2531319559758946 1.0000   
         C         C         1.0       0.24599765832015325           0.3484270411835563 0.23051355113768868          1.0000   
         H         H         1.0       0.27601381295076566           0.33148869198133846          0.24485973909660882          1.0000   
         H         H         1.0       0.23441315778772448           0.3111373891302432 0.2593576012763987 1.0000   
         H         H         1.0       0.23226690756835663           0.326174651251334  0.21863491056246503          1.0000   
         H         H         1.0       0.22797798735111446           0.3556236547821123 0.23537064135333413          1.0000   
         C         C         1.0       0.41911580604288984           0.5898148711063554 0.33332938360173753          1.0000   
         C         C         1.0       0.42573828123009116           0.5630010556722802 0.3384511162679615 1.0000   
         H         H         1.0       0.4432345013357304  0.6135343533904893  0.32825035335667035          1.0000   
         H         H         1.0       0.4031974825376487  0.5837087120324961  0.31649628947362307          1.0000   
         H         H         1.0       0.43752739024947435           0.5668803029892914 0.3568871850552492 1.0000   
         H         H         1.0       0.44526282188533367           0.5683528700522161 0.324129827274742  1.0000   
         C         C         1.0       0.6129858280034337  0.4236318829334068  0.46857527360632195          1.0000   
         C         C         1.0       0.6208634757500393  0.40510666358237424           0.4868787932896232 1.0000   
         H         H         1.0       0.614970179913662   0.4466867495940152  0.47642467506079145          1.0000   
         H         H         1.0       0.6345936963105412  0.43404907580189067           0.45507981530482655          1.0000   
         H         H         1.0       0.6458385387067737  0.42467126869575234           0.4955928230522718 1.0000   
         H         H         1.0       0.6266233182780823  0.3901142113629044  0.4758372147619117 1.0000   
         C         C         1.0       0.45485152752944047           0.4205512485465533 0.25415614948492726          1.0000   
         C         C         1.0       0.43641493982869933           0.3880312130637786 0.270239845001691  1.0000   
         H         H         1.0       0.474404156749086   0.4436553548209503  0.2647578414100967 1.0000   
         H         H         1.0       0.4706431876185845  0.4162990032038802  0.24238402065087045          1.0000   
         H         H         1.0       0.4561477098172826  0.3828339690642825  0.27349144396111563          1.0000   
         H         H         1.0       0.4162705865686462  0.3651222682691666  0.25953791611950305          1.0000   
         C         C         1.0       0.4994093327235724  0.32722091010245974           0.2974249404736347 1.0000   
         C         C         1.0       0.48799080048027244           0.34804926679817655          0.2842470022876115 1.0000   
         H         H         1.0       0.5267276279104032  0.33302935495036107           0.29102008356225606          1.0000   
         H         H         1.0       0.47823969879797185           0.30100467823986415          0.29138089079818   1.0000   
         H         H         1.0       0.462504477967192   0.3317219547502152  0.27617242565918015          1.0000   
         H         H         1.0       0.48612997168655675           0.365659920346878  0.2958108847978075 1.0000   
         C         C         1.0       0.25318749090705067           0.31618509276093815          0.41196403240949614          1.0000   
         C         C         1.0       0.2574996506850371  0.349353233892576   0.4207959003416094 1.0000   
         H         H         1.0       0.23292632207264305           0.3018096021721538 0.3981817988794162 1.0000   
         H         H         1.0       0.24542393629885015           0.29891938132257184          0.42858115120752666          1.0000   
         H         H         1.0       0.23547456143494402           0.34433119387299593          0.4319959033433091 1.0000   
         H         H         1.0       0.27989769590026    0.36128309620013016           0.4342108848563539 1.0000   
         C         C         1.0       0.43085279317700953           0.21925929860147608          0.46757637785595574          1.0000   
         C         C         1.0       0.3959025644365078  0.18841792602549912           0.45973453503277983          1.0000   
         H         H         1.0       0.4270585131920341  0.2271900436228505  0.4864374589302866 1.0000   
         H         H         1.0       0.4508178715886151  0.21404071811548392           0.46949274324441853          1.0000   
         H         H         1.0       0.397928776209208   0.17775904289382222           0.44225359672309444          1.0000   
         H         H         1.0       0.37650327226813374           0.1930956918861756 0.45457944694564084          1.0000   
         C         C         1.0       0.4101736029628128  0.5004123333893191  0.41439151720412065          1.0000   
         C         C         1.0       0.383526267766906   0.49032096076646264           0.43514209208099736          1.0000   
         H         H         1.0       0.43681379751153526           0.5195769714903494 0.4221183521800625 1.0000   
         H         H         1.0       0.40858524553266784           0.516214274494926  0.40044877699056736          1.0000   
         H         H         1.0       0.3596418658996411  0.464041400082776   0.4330741918146518 1.0000   
         H         H         1.0       0.3973592105380089  0.48891248741158166           0.452806622142018  1.0000   
         C         C         1.0       0.37924599431757267           0.05006217867860263          0.8726419727160303 1.0000   
         C         C         1.0       0.41732968473350635           0.07208641759557044          0.8640581217799136 1.0000   
         H         H         1.0       0.6169703291817611  0.6298695295494037  0.01128395010646055          1.0000   
         H         H         1.0       0.6152831956857611  0.6129216464849998  0.9813070160090576 1.0000   
         H         H         1.0       0.4340422509438163  0.06859966477539658           0.8760116903004542 1.0000   
         H         H         1.0       0.42076121391567134           0.06623551338659572          0.8458901697418773 1.0000   
         C         C         1.0       0.3320023985699986  0.1653567321543952  0.02292239934182505          1.0000   
         C         C         1.0       0.3234716763491625  0.12956962174901507           0.02539372816497587          1.0000   
         H         H         1.0       0.3599576024809522  0.1836262316041078  0.022385665085596473         1.0000   
         H         H         1.0       0.319947166068137   0.16751383331338024           0.03927267931410405          1.0000   
         H         H         1.0       0.32616831555209963           0.12687449398165393          0.045473673491112754         1.0000   
         H         H         1.0       0.4817361564960489  0.7025197490949128  0.923175093336775  1.0000   
         C         C         1.0       0.25626862280366774           0.3886062615536157 0.8952626958108123 1.0000   
         C         C         1.0       0.2198055313281423  0.3584023716859281  0.9067031774318666 1.0000   
         H         H         1.0       0.2596878761718372  0.38303184394846274           0.8755624106361756 1.0000   
         H         H         1.0       0.25238172031495276           0.40844727695054506          0.8938034106753006 1.0000   
         H         H         1.0       0.19754154956913964           0.3581135747238658 0.8978171774393646 1.0000   
         H         H         1.0       0.21554862517502416           0.36487802786380646          0.925838885349919  1.0000   
         C         C         1.0       0.406216688820314   0.33969274553749146           0.981324736461771  1.0000   
         C         C         1.0       0.4392889563120064  0.37453197366054    0.9753023332971842 1.0000   
         H         H         1.0       0.41348520143827233           0.3224185279918504 0.9772461190192924 1.0000   
         H         H         1.0       0.3863601857055901  0.33461512379694036           0.9691262976124407 1.0000   
         H         H         1.0       0.4492963790792225  0.37203752559208586           0.9575232170119449 1.0000   
         H         H         1.0       0.4624714212096512  0.3833264314414355  0.9870555891919386 1.0000   
         C         C         1.0       0.48663309796602555           0.08988475407094687          0.15941718744046904          1.0000   
         C         C         1.0       0.8856301013832384  0.15957467547244916           0.16400691474140805          1.0000   
         H         H         1.0       0.5129573101030528  0.09437325626564763           0.1561513943555848 1.0000   
         H         H         1.0       0.469271748686772   0.06421816908407907           0.16764846850635523          1.0000   
         H         H         1.0       0.8630920517616307  0.1441838128871607  0.1506696000328457 1.0000   
         H         H         1.0       0.8731400915924765  0.1670056265494994  0.17573982514796913          1.0000   
         C         C         1.0       0.0237248962153511  0.1526867534444909  0.9882950746457961 1.0000   
         C         C         1.0       0.04488931113883072           0.1406875311691138 0.9759364618655585 1.0000   
         H         H         1.0       0.9968869181528516  0.13058453107591655           0.9936588025447495 1.0000   
         H         H         1.0       0.018669679628267054          0.16434626271437422          0.9722465920550241 1.0000   
         H         H         1.0       0.024878742143694326          0.12076760684160509          0.9625273519865604 1.0000   
         H         H         1.0       0.04969786695425711           0.12568143533330753          0.9891227449908925 1.0000   
         C         C         1.0       0.5459835686857551  0.22342700073023333           0.9548518505089818 1.0000   
         C         C         1.0       0.5582517630287606  0.2415841146978355  0.9800958993335287 1.0000   
         H         H         1.0       0.5478412504407287  0.24272181196596304           0.9413912789212183 1.0000   
         H         H         1.0       0.5676473768820895  0.22166840968062135           0.9480294259265306 1.0000   
         H         H         1.0       0.5458218351756795  0.2533836361957058  0.9812959846454629 1.0000   
         H         H         1.0       0.5860486585849553  0.26060020848598425           0.982919560752548  1.0000   
         C         C         1.0       0.22891407896555166           0.37327117974951507          0.029588295147404464         1.0000   
         C         C         1.0       0.2610627218180097  0.37477343814542974           0.03996415140675813          1.0000   
         H         H         1.0       0.22598371060361902           0.3701168844659275 0.010182275055801826         1.0000   
         H         H         1.0       0.23129759501948488           0.396279100633179  0.03529226040165634          1.0000   
         H         H         1.0       0.25452094751017196           0.349595011544387  0.04359626969123487          1.0000   
         H         H         1.0       0.26987419515426186           0.3877906878012764 0.0580642052689575 1.0000   
         C         C         1.0       0.1367267170562814  0.41396214050012403           0.17415038249986659          1.0000   
         C         C         1.0       0.1268202340055634  0.3791919510390365  0.16789217250616922          1.0000   
         H         H         1.0       0.16139462499414117           0.4278666824710344 0.18329385007313417          1.0000   
         H         H         1.0       0.13854886881721698           0.42709333383268633          0.15620730317125503          1.0000   
         H         H         1.0       0.13013485294207575           0.369812868804234  0.18573880657462277          1.0000   
         H         H         1.0       0.14791653079960596           0.38294519288543555          0.1562338835790619 1.0000   
         C         C         1.0       0.1959096994668884  0.2346629419428387  0.13332685764300567          1.0000   
         C         C         1.0       0.2259126641303765  0.23286922881345656           0.1253030212016765 1.0000   
         H         H         1.0       0.18000878480833152           0.21202040507008452          0.14538559530977532          1.0000   
         H         H         1.0       0.20731500825632415           0.25455892213198433          0.14551796814570153          1.0000   
         H         H         1.0       0.21157516691296013           0.2100785202591655 0.11397480354367122          1.0000   
         H         H         1.0       0.23791597280599447           0.2285526593078295 0.14119795600914092          1.0000   
         C         C         1.0       0.1383046399021853  0.8894074505335421  0.14059121098368663          1.0000   
         C         C         1.0       0.1479577006237132  0.8682281537546356  0.144810110785422  1.0000   
         C         C         1.0       0.13711769088865922           0.8424247829025647 0.1287446339451538 1.0000   
         C         C         1.0       0.1191242453288808  0.8384055334592457  0.10732714816703917          1.0000   
         C         C         1.0       0.10790184068609393           0.8598818244513782 0.10427520262630852          1.0000   
         C         C         1.0       0.11816431649764667           0.8842991213948996 0.12059457433707532          1.0000   
         H         H         1.0       0.16620126857319378           0.8740768055348609 0.1592703681560089 1.0000   
         H         H         1.0       0.14716748186396159           0.8274024099889382 0.1318353823142439 1.0000   
         H         H         1.0       0.09445969035818104           0.8592038802992003 0.08703362786540669          1.0000   
         H         H         1.0       0.1075974592926451  0.8998863410352871  0.11766848233440252          1.0000   
         C         C         1.0       0.5420110577254336  0.7173762082181254  0.09528600168022794          1.0000   
         C         C         1.0       0.08020191830643905           0.8022183997937125 0.06880398169168034          1.0000   
         C         C         1.0       0.07633786120238702           0.7946531759570635 0.042701815970374035         1.0000   
         C         C         1.0       0.5115500848016501  0.6900641605154606  0.050754031216980966         1.0000   
         C         C         1.0       0.4925928819458295  0.6926924213529155  0.06861470543003856          1.0000   
         C         C         1.0       0.5074770546317727  0.7063325915650169  0.0904696786609478 1.0000   
         C         C         1.0       0.11346397379889435           0.8155450795922958 0.08500366441571572          1.0000   
         C         C         1.0       0.11073432607711446           0.7814168119842387 0.08992072590045352          1.0000   
         C         C         1.0       0.11542199057238674           0.7656303244300134 0.06996611765350735          1.0000   
         C         C         1.0       0.10928427745626107           0.7358711600453622 0.07423476725311873          1.0000   
         C         C         1.0       0.09834339193387291           0.7203360354302145 0.09677745102903243          1.0000   
         C         C         1.0       0.09718271368960338           0.7364124303976287 0.11613761684677276          1.0000   
         C         C         1.0       0.0991816194559136  0.7652053807900242  0.11222012494014252          1.0000   
         C         C         1.0       0.15446193016161305           0.8628869848778634 0.05320995548832319          1.0000   
         C         C         1.0       0.18723681528765956           0.8836972074406608 0.043398667630858645         1.0000   
         C         C         1.0       0.21541500150442047           0.8847250406824211 0.051041024156980974         1.0000   
         C         C         1.0       0.2100051527170141  0.8615620449897298  0.06836336150415456          1.0000   
         C         C         1.0       0.1786597811158731  0.8415187765248346  0.07846694979800974          1.0000   
         C         C         1.0       0.15036810514696744           0.8421841399362704 0.0724247016739148 1.0000   
         C         C         1.0       0.2540785526275704  0.9116975123478726  0.0411809011779245 1.0000   
         C         C         1.0       0.24806918159475264           0.8711244992423194 0.9696271574475014 1.0000   
         C         C         1.0       0.24628297748862285           0.8979329307933742 0.9707599378385309 1.0000   
         C         C         1.0       0.2463241738099457  0.909977482704391   0.9930517563701471 1.0000   
         C         C         1.0       0.24846116298361412           0.8958264792900665 0.013997356459233501         1.0000   
         C         C         1.0       0.2493939659896664  0.8682507192413437  0.012008954542967354         1.0000   
         C         C         1.0       0.24767931279820551           0.854994450604244  0.9897734406350531 1.0000   
         C         C         1.0       0.28593769618324305           0.9142467522896132 0.056509932151044495         1.0000   
         C         C         1.0       0.2867954795987497  0.9164062403022742  0.0817710927052584 1.0000   
         C         C         1.0       0.3090709742439053  0.9125466306044684  0.0955050394803978 1.0000   
         C         C         1.0       0.33407199526182485           0.9111054383978631 0.08380162882706688          1.0000   
         C         C         1.0       0.33706654995726776           0.9131196118324412 0.058980181641818064         1.0000   
         C         C         1.0       0.31427619844149735           0.9175840344076678 0.045349951043583525         1.0000   
         C         C         1.0       0.2930717192299094  0.9722315983194114  0.027431773338190135         1.0000   
         C         C         1.0       0.30834090004720915           0.006303505268235199         0.03126209585420314          1.0000   
         C         C         1.0       0.2970132584401254  0.01522405575358965           0.0506054311631301 1.0000   
         C         C         1.0       0.2667898860755119  0.9919431571975471  0.062041215047230924         1.0000   
         C         C         1.0       0.25200579446451027           0.9595937812356709 0.05952091496879097          1.0000   
         C         C         1.0       0.26506775205432787           0.9486423820326001 0.04138128953181375          1.0000   
         H         H         1.0       0.5535939298169641  0.7265068286912744  0.11275082948245063          1.0000   
         H         H         1.0       0.09826248208509931           0.7991991815057087 0.03277668261470823          1.0000   
         H         H         1.0       0.04528123093622427           0.7642966156419015 0.01469406986781907          1.0000   
         H         H         1.0       0.4934820200044532  0.7105045378443932  0.1043749290130056 1.0000   
         H         H         1.0       0.12349441486400291           0.7758540524092256 0.05199378642438313          1.0000   
         H         H         1.0       0.1131644731813775  0.7232335446379383  0.0590719893062901 1.0000   
         H         H         1.0       0.5744004534990362  0.6569422631854536  0.15331900317247182          1.0000   
         H         H         1.0       0.5890450161064434  0.7077992184127184  0.1351919988062343 1.0000   
         H         H         1.0       0.1329150342188432  0.8619378922783212  0.04405781860810842          1.0000   
         H         H         1.0       0.1868477907792697  0.8927404621756134  0.025329117827457948         1.0000   
         H         H         1.0       0.23113229563201068           0.8598642230292987 0.07415331581434725          1.0000   
         H         H         1.0       0.17848542227906772           0.8277557035504735 0.09359604350302919          1.0000   
         H         H         1.0       0.24458902153777448           0.910054489725463  0.954830025504286  1.0000   
         H         H         1.0       0.24869015563099953           0.932588586122395  0.9952579994460171 1.0000   
         H         H         1.0       0.25224624263191203           0.8566214899905298 0.02799459611704469          1.0000   
         H         H         1.0       0.2508541104460083  0.8352035359829606  0.9908037701558036 1.0000   
         H         H         1.0       0.26552705546340843           0.9158484899667574 0.09133998771285513          1.0000   
         H         H         1.0       0.30695156729900314           0.9116650506881162 0.11430846659619454          1.0000   
         H         H         1.0       0.3577741284614844  0.9129089016695476  0.04996754859732966          1.0000   
         H         H         1.0       0.31979808237157126           0.9234273417136413 0.024557670677506582         1.0000   
         H         H         1.0       0.30472501857872786           0.9650185893308905 0.014463431832363316         1.0000   
         H         H         1.0       0.3321774297151798  0.022629038130119072         0.020463889991454653         1.0000   
         H         H         1.0       0.25412410069711355           0.9980121477488986 0.07540613945975894          1.0000   
         H         H         1.0       0.23088036741981277           0.9419538471177153 0.07256815973548258          1.0000   
         C         C         1.0       0.4587123033784329  0.6513905422516276  0.9326452774444914 1.0000   
         C         C         1.0       0.32936210545212635           0.09214124487560804          0.9966355794280023 1.0000   
         C         C         1.0       0.34953575842026513           0.0823580446958776 0.9868362979420247 1.0000   
         C         C         1.0       0.38594480660348507           0.1036076557971719 0.9874665615655497 1.0000   
         C         C         1.0       0.43542290518829135           0.5976070418708698 0.9475738267513423 1.0000   
         C         C         1.0       0.4314837922623878  0.6184304973353324  0.9338907454193232 1.0000   
         H         H         1.0       0.30460640340690753           0.08256602301048876          0.9906198609805935 1.0000   
         H         H         1.0       0.3385839365346298  0.060150508686917625         0.9751283792055924 1.0000   
         H         H         1.0       0.41327329636785587           0.5738551729009339 0.9513383914585125 1.0000   
         H         H         1.0       0.40622371060078244           0.6110195689989829 0.9268607450510422 1.0000   
         C         C         1.0       0.4249599421433564  0.6008750235908324  0.008309828341403813         1.0000   
         C         C         1.0       0.4508659291984926  0.5952348159530816  0.009339899643557192         1.0000   
         C         C         1.0       0.46139240289093436           0.5936180030727105 0.032082843517292625         1.0000   
         C         C         1.0       0.45504795285645916           0.6071587571855886 0.051704627867236175         1.0000   
         C         C         1.0       0.43418690610160876           0.618749760317107  0.049764932718679766         1.0000   
         C         C         1.0       0.41830330980519026           0.6152901509800457 0.028072530728326273         1.0000   
         C         C         1.0       0.41178801678547083           0.09839354194161731          0.9727065472055436 1.0000   
         C         C         1.0       0.3980944121145146  0.08164977575854326           0.9468943695235662 1.0000   
         C         C         1.0       0.40541991097973445           0.05982891856880079          0.9380701570812716 1.0000   
         C         C         1.0       0.3965144306288107  0.04686924286010985           0.9143119106407497 1.0000   
         C         C         1.0       0.5729285397084636  0.6153955928071763  0.9912106464416286 1.0000   
         C         C         1.0       0.562333523229058   0.6333200933821169  0.004724770668226741         1.0000   
         C         C         1.0       0.529007661178753   0.6243252700474706  0.002183208874178222         1.0000   
         C         C         1.0       0.44960785555538446           0.09711150794139489          0.00806072258425683          1.0000   
         C         C         1.0       0.45763675591013037           0.08194899474180284          0.024796904926359886         1.0000   
         C         C         1.0       0.43563540034110393           0.048275127556051345         0.02805358705866179          1.0000   
         C         C         1.0       0.40642999366819754           0.031681423076277415         0.014106623834329923         1.0000   
         C         C         1.0       0.3993354212611069  0.044659091344223745         0.9951396841696704 1.0000   
         C         C         1.0       0.4208285048576713  0.07929930575159938           0.9923954724062602 1.0000   
         C         C         1.0       0.44531976892213826           0.033495967823865325         0.050443813279764216         1.0000   
         C         C         1.0       0.5511002895883658  0.06886653435688395           0.07424106369270644          1.0000   
         C         C         1.0       0.5260180075476452  0.058181532674984826         0.09137561012117357          1.0000   
         C         C         1.0       0.4936825355878907  0.049696108236299885         0.08361794446427373          1.0000   
         C         C         1.0       0.48615749061854197           0.05250542627154031          0.058721556191764  1.0000   
         C         C         1.0       0.513114020450691   0.06537933383739936           0.04213967272472563          1.0000   
         C         C         1.0       0.5456242346975543  0.07339625509053449           0.04949385629263836          1.0000   
         C         C         1.0       0.4378365621095806  0.9977393779733695  0.04344859023072112          1.0000   
         C         C         1.0       0.43104153223677194           0.9760611707353193 0.0621683448454462 1.0000   
         C         C         1.0       0.4316639118223427  0.948610179863891   0.057553509619383325         1.0000   
         C         C         1.0       0.4418775790396957  0.9448596591391014  0.03481436568464358          1.0000   
         C         C         1.0       0.4405976482844859  0.9621435649610308  0.015055411713409628         1.0000   
         C         C         1.0       0.4424169124916765  0.990600005527419   0.02011272448565582          1.0000   
         C         C         1.0       0.38422230895462284           0.006900297220773455         0.07314156020026497          1.0000   
         C         C         1.0       0.35915736799486986           0.010593186918179454         0.08006762405656453          1.0000   
         C         C         1.0       0.3665923110505707  0.04103219544889192           0.08467616232545372          1.0000   
         C         C         1.0       0.400432950184101   0.06625966660494953           0.08694001307301624          1.0000   
         C         C         1.0       0.4270162026835436  0.06378694889672731           0.08061028445927998          1.0000   
         C         C         1.0       0.41942963681401807           0.03445449779372911          0.06973667292492292          1.0000   
         H         H         1.0       0.4108461508414657  0.5958248980992181  0.9907276434242718 1.0000   
         H         H         1.0       0.4748580185005006  0.1099984968059744  0.9573633825154244 1.0000   
         H         H         1.0       0.46936534058923307           0.6102506619113733 0.06906993733218969          1.0000   
         H         H         1.0       0.40311792455886897           0.6260865056978018 0.026041203386225398         1.0000   
         H         H         1.0       0.4206672647696292  0.054378204291146925         0.9474416218141475 1.0000   
         H         H         1.0       0.410731558321489   0.03650510636302795           0.9093970524112449 1.0000   
         H         H         1.0       0.5798773299888871  0.6564104694316382  0.015134062331363385         1.0000   
         H         H         1.0       0.5228704978687446  0.6390760957435314  0.012002679226448931         1.0000   
         H         H         1.0       0.46506019672706833           0.12291229451098706          0.008055728909026172         1.0000   
         H         H         1.0       0.47895555724961775           0.09615558762357135          0.03674765658705792          1.0000   
         H         H         1.0       0.39126216339459197           0.006008637515984461         0.015949301261993565         1.0000   
         H         H         1.0       0.3776285172609559  0.02939385697350927           0.9835492188690066 1.0000   
         H         H         1.0       0.5290547248335691  0.05166080207885093           0.10971482966396473          1.0000   
         H         H         1.0       0.47457043554619077           0.04100787040759779          0.09638953712966392          1.0000   
         H         H         1.0       0.5069260061872218  0.06487582072913023           0.02399036766263518          1.0000   
         H         H         1.0       0.5653594140494382  0.07992708424425232           0.03507200311621306          1.0000   
         H         H         1.0       0.4292195717073223  0.9816727784054438  0.08089154622388395          1.0000   
         H         H         1.0       0.42642621439696193           0.9346045936645253 0.07339724814973936          1.0000   
         H         H         1.0       0.44146235006592593           0.9542621804378288 0.9968192232414191 1.0000   
         H         H         1.0       0.44587813670651755           0.007869164434335385         0.006091467402625783         1.0000   
         H         H         1.0       0.37631446087201514           0.9822011364082287 0.06791246002975071          1.0000   
         H         H         1.0       0.3325277978724716  0.9887932570732245  0.08133405276266248          1.0000   
         H         H         1.0       0.406080092688882   0.09047420571256026           0.09223074743597803          1.0000   
         H         H         1.0       0.4526468057531347  0.08591698480588428           0.08198513099662974          1.0000   
         C         C         1.0       0.4283363954554826  0.8620033768126724  0.46474633523773484          1.0000   
         C         C         1.0       0.4433020478202384  0.8882876362081754  0.4799664837242875 1.0000   
         C         C         1.0       0.4756393453452291  0.9164057282963876  0.4748350612148883 1.0000   
         C         C         1.0       0.49615936435324104           0.918775642518439  0.4555703015364999 1.0000   
         C         C         1.0       0.4779818187798665  0.8933860218344005  0.43816663025209796          1.0000   
         C         C         1.0       0.4433247459763455  0.866792880941449   0.4418420978067193 1.0000   
         H         H         1.0       0.4299745775481739  0.8874801550068123  0.49682896045326586          1.0000   
         H         H         1.0       0.48696769169497034           0.9366683442593084 0.4881349132245506 1.0000   
         H         H         1.0       0.48594727212205324           0.8949918280536998 0.4194377215297077 1.0000   
         H         H         1.0       0.4309717978464014  0.8494433027202792  0.4264143193884262 1.0000   
         C         C         1.0       0.5506271633383344  0.904932518040115   0.4548311231222645 1.0000   
         C         C         1.0       0.5580367823777104  0.9338682298402868  0.44375096491451227          1.0000   
         C         C         1.0       0.5806368463835919  0.9467633250036958  0.4241636690927595 1.0000   
         C         C         1.0       0.5960216392248952  0.9306282958531638  0.41679681163956617          1.0000   
         C         C         1.0       0.5913449816864021  0.9040902947233306  0.4302651795412751 1.0000   
         C         C         1.0       0.5675693307097996  0.8904687441512453  0.4488405551324808 1.0000   
         C         C         1.0       0.5360838258033209  0.9475622408525078  0.4523765137425887 1.0000   
         C         C         1.0       0.5613317530848082  0.9691083689907132  0.4738040387913362 1.0000   
         C         C         1.0       0.5948533613008171  0.998211550286127   0.46842287835828356          1.0000   
         C         C         1.0       0.6210316526717479  0.016365072660724955         0.48601641409814617          1.0000   
         C         C         1.0       0.6150055451659637  0.007374934873711547         0.5099630649617967 1.0000   
         C         C         1.0       0.582113056025303   0.9824353382701387  0.5166213893689604 1.0000   
         C         C         1.0       0.5553379366217128  0.962935264783999   0.4997791142878928 1.0000   
         C         C         1.0       0.5292136161999552  0.964592438019362   0.4073937968614521 1.0000   
         C         C         1.0       0.5245133685368395  0.9840422131185868  0.3932646677566661 1.0000   
         C         C         1.0       0.5148870945440718  0.0045065904869330264        0.40160459976932217          1.0000   
         C         C         1.0       0.515081342590122   0.00716696401659811           0.4259918786221559 1.0000   
         C         C         1.0       0.5188715088929534  0.9872570263021815  0.44159379986443265          1.0000   
         C         C         1.0       0.5279277136177607  0.9664887879219122  0.43269266448487154          1.0000   
         C         C         1.0       0.5100555581308502  0.02558917842601005           0.3804440021108042 1.0000   
         C         C         1.0       0.6184356930480496  0.09316157580555995           0.35299226650807214          1.0000   
         C         C         1.0       0.5921647940646899  0.06909909505920431           0.33851184702565423          1.0000   
         C         C         1.0       0.5573368540162165  0.0489890098462431  0.3449782201084975 1.0000   
         C         C         1.0       0.5493876192597786  0.05007827325765146           0.3694020421215235 1.0000   
         C         C         1.0       0.5750475822087884  0.07157379896345528           0.3853256558088465 1.0000   
         C         C         1.0       0.6084873378707929  0.09320780734707657           0.37738017610446506          1.0000   
         C         C         1.0       0.4964430448128135  0.04651968557112607           0.39185982282182186          1.0000   
         C         C         1.0       0.4653456040741779  0.029622503819676904         0.40418030362024815          1.0000   
         C         C         1.0       0.4514347976614932  0.04455430027323093           0.4160494174775506 1.0000   
         C         C         1.0       0.4721801388135995  0.07782058246898571           0.41967990508478803          1.0000   
         C         C         1.0       0.5016790964436282  0.09591904391555017           0.40500138772413874          1.0000   
         C         C         1.0       0.5136583433367722  0.08039261841749701           0.39156719650580923          1.0000   
         C         C         1.0       0.4750161397668969  0.017925105705801192         0.3405142786326965 1.0000   
         C         C         1.0       0.45177004828785344           0.9976049644352913 0.3214769707336784 1.0000   
         C         C         1.0       0.4376759791961011  0.9657463523156057  0.31996693933012   1.0000   
         C         C         1.0       0.43995701538846654           0.9508368331594612 0.34060530677446416          1.0000   
         C         C         1.0       0.46042158501505304           0.9697141384903801 0.36036019126412167          1.0000   
         C         C         1.0       0.48009401821028275           0.0031736102933894728        0.35998962526784745          1.0000   
         H         H         1.0       0.5313979478517041  0.8941708363124449  0.46922416612682594          1.0000   
         H         H         1.0       0.587554144861674   0.9704431741814356  0.4178566184753277 1.0000   
         H         H         1.0       0.6179674231042716  0.9423425773386194  0.40508737929242944          1.0000   
         H         H         1.0       0.5612922845850138  0.8666986659030068  0.4564057618218914 1.0000   
         H         H         1.0       0.605171558641444   0.007543228818788217         0.4506774622523906 1.0000   
         H         H         1.0       0.6474099096745062  0.036692363469207345         0.4799310012501551 1.0000   
         H         H         1.0       0.5757842642118172  0.9776650070844543  0.5359761150380428 1.0000   
         H         H         1.0       0.5301026480719492  0.9436202648202229  0.5057705575866132 1.0000   
         H         H         1.0       0.5340408061872458  0.9470021354601549  0.40093629783259777          1.0000   
         H         H         1.0       0.5238799737375073  0.9830062563515424  0.3726238851193111 1.0000   
         H         H         1.0       0.5094587141404857  0.02469170793299824           0.43487195590276984          1.0000   
         H         H         1.0       0.5158251677748894  0.9903107490756166  0.46105872914472884          1.0000   
         H         H         1.0       0.5969749222091248  0.06809794038697659           0.3197952417067257 1.0000   
         H         H         1.0       0.539348457932231   0.03426026382232905           0.33096535320613824          1.0000   
         H         H         1.0       0.5716241864789976  0.07286071249176729           0.40575383381153074          1.0000   
         H         H         1.0       0.6249207806758238  0.11131144890205547           0.39004545119322304          1.0000   
         H         H         1.0       0.4534040284006665  0.004516727908686402         0.4076328449429398 1.0000   
         H         H         1.0       0.42822531754999227           0.027454911818976413         0.4266962435426055 1.0000   
         H         H         1.0       0.5183794604231902  0.12356333189892066           0.40569166853291816          1.0000   
         H         H         1.0       0.5358075283010229  0.09600763917459942           0.37839388170789634          1.0000   
         H         H         1.0       0.48679911795406233           0.04445987838647425          0.3389282793576851 1.0000   
         H         H         1.0       0.45220526990994836           0.010585575362271227         0.3062014062009377 1.0000   
         H         H         1.0       0.4288342891964613  0.9252519255867689  0.34166533444316943          1.0000   
         H         H         1.0       0.4659066683283868  0.9557817412932561  0.3736685220852284 1.0000   
         C         C         1.0       0.10346823599782763           0.8150348573164229 0.24626177818184858          1.0000   
         C         C         1.0       0.12918814518715896           0.848423564377789  0.24349391115589195          1.0000   
         C         C         1.0       0.14234646872141915           0.8694444259979722 0.2635546279313874 1.0000   
         C         C         1.0       0.1341347070839894  0.8565241407585233  0.2872230866793088 1.0000   
         C         C         1.0       0.10981479471735027           0.82292282073863   0.29019788469613716          1.0000   
         C         C         1.0       0.09545369963468013           0.8027889339872237 0.27086403274325843          1.0000   
         H         H         1.0       0.13727918603990308           0.8592854382162604 0.2255043188040156 1.0000   
         H         H         1.0       0.1638438718957563  0.8954404064743068  0.25962764653617887          1.0000   
         H         H         1.0       0.096621263094711   0.8120267503715075  0.3076295714995596 1.0000   
         H         H         1.0       0.07420022263341927           0.7778305050967004 0.27449765238085033          1.0000   
         C         C         1.0       0.5879533861578818  0.8103292926209322  0.3570690616697396 1.0000   
         C         C         1.0       0.13970308304021387           0.8646422432269776 0.3342561604152834 1.0000   
         C         C         1.0       0.11883859286280521           0.8653549634750507 0.351484178861646  1.0000   
         C         C         1.0       0.6220538391974226  0.8395595535331493  0.4003109655983304 1.0000   
         C         C         1.0       0.5920618342902415  0.8376500013269572  0.39495941588548183          1.0000   
         C         C         1.0       0.5754729243097684  0.8222818791002695  0.37263620453559343          1.0000   
         C         C         1.0       0.14625289353461243           0.8812956367221394 0.30837669644877036          1.0000   
         C         C         1.0       0.1239490834717626  0.8961207476901835  0.30316689581811407          1.0000   
         C         C         1.0       0.08793954309102323           0.8768473902694442 0.30514703334917526          1.0000   
         C         C         1.0       0.06872809947763865           0.8896197839085548 0.3020470355463446 1.0000   
         C         C         1.0       0.08382416028147037           0.9216670846547514 0.29556323314149674          1.0000   
         C         C         1.0       0.11837213005992579           0.9404460410795091 0.29231188970652744          1.0000   
         C         C         1.0       0.14003260419939972           0.9296636438246471 0.29628696960169365          1.0000   
         C         C         1.0       0.21047339981332913           0.9017858731245011 0.30083776847187954          1.0000   
         C         C         1.0       0.2432146397390331  0.9147315470236479  0.3120982954812124 1.0000   
         C         C         1.0       0.2545578424564811  0.9358650501311115  0.33225691025542   1.0000   
         C         C         1.0       0.2338330398867416  0.9455605058915502  0.33996191665712455          1.0000   
         C         C         1.0       0.20067657902530403           0.9304457232766572 0.33024069834461217          1.0000   
         C         C         1.0       0.1880706605430364  0.9078886478526229  0.3100775372607043 1.0000   
         C         C         1.0       0.28584714159581226           0.9424473656198211 0.3478104734812452 1.0000   
         C         C         1.0       0.2307153190965331  0.8778307147164376  0.4099509218985039 1.0000   
         C         C         1.0       0.2343661129400672  0.8670118871658147  0.38853572549686327          1.0000   
         C         C         1.0       0.2506934063198272  0.8866001386660507  0.3698089018812806 1.0000   
         C         C         1.0       0.265996277027264   0.9207974279760192  0.37091838635165736          1.0000   
         C         C         1.0       0.26113021798136055           0.9323439452477137 0.3922981655277643 1.0000   
         C         C         1.0       0.24549318185742688           0.9112206126842263 0.4122232996064775 1.0000   
         C         C         1.0       0.3124692929336814  0.9798138177028928  0.35392075789901645          1.0000   
         C         C         1.0       0.3181966486152187  0.00476522003575286           0.3383293284085575 1.0000   
         C         C         1.0       0.34385082765921454           0.03807442099241354          0.3426987240329502 1.0000   
         C         C         1.0       0.3645689102849674  0.04738206276398782           0.36383613213335236          1.0000   
         C         C         1.0       0.360446281220933   0.021646184616583408         0.37810626187969676          1.0000   
         C         C         1.0       0.33641414550254595           0.9894591257966235 0.37286887375313293          1.0000   
         C         C         1.0       0.32382333699169014           0.9484239423270105 0.31336204977734816          1.0000   
         C         C         1.0       0.34614158763352765           0.943806273140006  0.3004934945836375 1.0000   
         C         C         1.0       0.3544039391237001  0.9230826191305561  0.31022266562936235          1.0000   
         C         C         1.0       0.3419558145809537  0.9092357411638988  0.33366767270286146          1.0000   
         C         C         1.0       0.3242855653376035  0.918431145861642   0.34646610173739845          1.0000   
         C         C         1.0       0.3114306149629365  0.9353932336422017  0.33609248105426465          1.0000   
         H         H         1.0       0.5743053094997139  0.7996932200029376  0.34060409392344043          1.0000   
         H         H         1.0       0.10444912334182513           0.8768864467157016 0.35144878600244917          1.0000   
         H         H         1.0       0.08884162653412297           0.8440577149224912 0.3837372454179973 1.0000   
         H         H         1.0       0.5526555644846975  0.8214968300769311  0.36742859978156306          1.0000   
         H         H         1.0       0.07667379754045686           0.8533412725608276 0.31262874162900955          1.0000   
         H         H         1.0       0.04207419628557641           0.8740178857789546 0.3055796990043188 1.0000   
         H         H         1.0       0.12997083237147125           0.9657082839184652 0.28568102014007823          1.0000   
         H         H         1.0       0.16702013436904986           0.9468939228325661 0.29425443015801706          1.0000   
         H         H         1.0       0.20213043822844984           0.8825768268449847 0.287306482657005  1.0000   
         H         H         1.0       0.25659829933901723           0.9044679836930841 0.3064493665750884 1.0000   
         H         H         1.0       0.23975931532402397           0.9604301835889498 0.356087755672377  1.0000   
         H         H         1.0       0.18324720868503755           0.9335926960400992 0.33894492711081164          1.0000   
         H         H         1.0       0.22331188769518615           0.8400852389246733 0.3867391731955268 1.0000   
         H         H         1.0       0.2535812647927629  0.8778710946227897  0.35163641352784847          1.0000   
         H         H         1.0       0.2723286506275183  0.9568512458966393  0.3966393940938861 1.0000   
         H         H         1.0       0.2414763387347679  0.9201091728947955  0.4296742602085739 1.0000   
         H         H         1.0       0.29883491580203425           0.0015604074939810086        0.3252871429294509 1.0000   
         H         H         1.0       0.34516711160276004           0.05725261111784752          0.33102120990771483          1.0000   
         H         H         1.0       0.3737752096370973  0.02660802702834375           0.39502872828596497          1.0000   
         H         H         1.0       0.3352573059230318  0.9703130358028735  0.3831770405182601 1.0000   
         H         H         1.0       0.3167153349041258  0.9625097047608351  0.30339766113178246          1.0000   
         H         H         1.0       0.35413377713201677           0.9563290602287652 0.28365341939089217          1.0000   
         H         H         1.0       0.34791862979389965           0.8922492226360508 0.34161055160460235          1.0000   
         H         H         1.0       0.3160345261627552  0.9087796291929542  0.364954248199963  1.0000   
         C         C         1.0       0.45004363521678226           0.10377166729035814          0.3531904124294702 1.0000   
         C         C         1.0       0.4496739361927702  0.07923670888125578           0.340679986996126  1.0000   
         C         C         1.0       0.47603528772118453           0.08839405002400991          0.32423824397589096          1.0000   
         C         C         1.0       0.5022916703562893  0.1206223061810674  0.3191092542123955 1.0000   
         C         C         1.0       0.49930299430800706           0.14357181027681398          0.3305747523481527 1.0000   
         C         C         1.0       0.4750315591836882  0.13515418835592152           0.3481564142736328 1.0000   
         H         H         1.0       0.42991072610487996           0.052202980649876496         0.3433268449703582 1.0000   
         H         H         1.0       0.47391532726865787           0.06943441774819537          0.3131840145838941 1.0000   
         H         H         1.0       0.516796607719983   0.17028180844841878           0.32645428827176093          1.0000   
         H         H         1.0       0.4714802371067028  0.15119213535634435           0.35939284234881397          1.0000   
         C         C         1.0       0.5053190448823531  0.09694702136274724           0.25807385056078364          1.0000   
         C         C         1.0       0.5202146996811574  0.10200688015014636           0.2807140764503778 1.0000   
         C         C         1.0       0.5265403564006791  0.07891733059676453           0.2891778862802062 1.0000   
         C         C         1.0       0.5205299862024776  0.05333679521833523           0.273348976692514  1.0000   
         C         C         1.0       0.5062244487598592  0.04974596007812826           0.2507307476101122 1.0000   
         C         C         1.0       0.4977297161169339  0.07108094215192473           0.24271243544354335          1.0000   
         C         C         1.0       0.5303784795410784  0.13326100418467068           0.29926115784500923          1.0000   
         C         C         1.0       0.5674699087231243  0.14565513796187668           0.3122348010709496 1.0000   
         C         C         1.0       0.5950237803248515  0.15101330908237287           0.29808438847789664          1.0000   
         C         C         1.0       0.6228987756048797  0.1530962449461477  0.3080939018892253 1.0000   
         C         C         1.0       0.6294877512374735  0.1579570914797661  0.33267619436033435          1.0000   
         C         C         1.0       0.6043017834821539  0.15525871693525195           0.34750952953522357          1.0000   
         C         C         1.0       0.5734582800375991  0.1502258872526545  0.3370743639333019 1.0000   
         C         C         1.0       0.3722509903536115  0.5121905594228312  0.1900903863397904 1.0000   
         C         C         1.0       0.3886290997714799  0.5455887758330559  0.1876592877286027 1.0000   
         C         C         1.0       0.4197070154030189  0.5656156958917584  0.199063346430828  1.0000   
         C         C         1.0       0.432436804898177   0.5517149459257192  0.21501652457638415          1.0000   
         C         C         1.0       0.41783056747090086           0.5193762170638654 0.2158513240282657 1.0000   
         C         C         1.0       0.3884538462135393  0.498061820713176   0.20168196713813455          1.0000   
         C         C         1.0       0.4463701874800616  0.6049882200723619  0.19323371198850292          1.0000   
         C         C         1.0       0.5078323552869786  0.5840154848663542  0.14753267383973978          1.0000   
         C         C         1.0       0.48211679918178996           0.5867950129134658 0.13673247378913986          1.0000   
         C         C         1.0       0.46198053212021384           0.5919623472368662 0.1518597619415983 1.0000   
         C         C         1.0       0.4717817008689185  0.6021111802540903  0.17616956278325396          1.0000   
         C         C         1.0       0.5003628933761274  0.6033762873835322  0.18473305982167856          1.0000   
         C         C         1.0       0.5170530010199903  0.5929008560819649  0.17157364113564394          1.0000   
         C         C         1.0       0.46337228981973533           0.6277781123802423 0.21599499000670533          1.0000   
         C         C         1.0       0.4464483096697966  0.6191296706558046  0.23848566050078362          1.0000   
         C         C         1.0       0.4631294253549683  0.6388043457329313  0.25818089047162496          1.0000   
         C         C         1.0       0.49648797203508627           0.6668160084833805 0.25685953160525105          1.0000   
         C         C         1.0       0.5130613257338336  0.6777315631954516  0.23446319034814517          1.0000   
         C         C         1.0       0.4964922880957774  0.65831827628443    0.21410621995629112          1.0000   
         C         C         1.0       0.4524999093574482  0.6516106353749826  0.16636584811108254          1.0000   
         C         C         1.0       0.4437793260760949  0.6723480817445617  0.15768582864624994          1.0000   
         C         C         1.0       0.41107148237912516           0.6648066475251023 0.16446112926039383          1.0000   
         C         C         1.0       0.3896481484663766  0.6378825180613024  0.17917355749310193          1.0000   
         C         C         1.0       0.39823372141943336           0.6174027636722589 0.18676584425490236          1.0000   
         C         C         1.0       0.4299530835770379  0.6232243183904309  0.18008785794681267          1.0000   
         H         H         1.0       0.49999127673505683           0.11361570318255976          0.24932749073223906          1.0000   
         H         H         1.0       0.5373150949309254  0.08218087305290855           0.3068960533730937 1.0000   
         H         H         1.0       0.523982689380573   0.033779628334590805         0.2791200304972074 1.0000   
         H         H         1.0       0.4842821455393203  0.06547303333886445           0.22482234562624295          1.0000   
         H         H         1.0       0.5929826213796189  0.14839386258076304           0.2791936313794813 1.0000   
         H         H         1.0       0.6395785525899286  0.14971725181880924           0.29593234773680405          1.0000   
         H         H         1.0       0.6072124245241357  0.15531564687100619           0.36696618866354325          1.0000   
         H         H         1.0       0.5567777629787122  0.14770221427730257           0.3521083034152044 1.0000   
         H         H         1.0       0.47842846823425744           0.13546977636013358          0.28069722362262844          1.0000   
         H         H         1.0       0.3823856737394157  0.554815869166701   0.1722178189211644 1.0000   
         H         H         1.0       0.45628552465437094           0.5651158795663218 0.2253365553129542 1.0000   
         H         H         1.0       0.4324080508265208  0.5100417561461763  0.22532207503708201          1.0000   
         H         H         1.0       0.47657939818209133           0.5841834881289989 0.11816819399981235          1.0000   
         H         H         1.0       0.4409246113122387  0.5940058880636352  0.14551794107938926          1.0000   
         H         H         1.0       0.5068745801479282  0.611748319415973   0.2034173163645908 1.0000   
         H         H         1.0       0.05414670365841248           0.6659681383509803 0.15154302800905392          1.0000   
         H         H         1.0       0.4223082636936354  0.5954066089006766  0.24145350305103822          1.0000   
         H         H         1.0       0.44930991274695103           0.6295454767560377 0.2756935681240813 1.0000   
         H         H         1.0       0.5402219147154278  0.6987332988305981  0.23266710162811438          1.0000   
         H         H         1.0       0.5118451898563438  0.6683785134994322  0.19858291199976424          1.0000   
         H         H         1.0       0.4774611308324346  0.6573713515970454  0.1613280336989099 1.0000   
         H         H         1.0       0.46321009546281694           0.6954543317749853 0.14831807619442325          1.0000   
         H         H         1.0       0.36289835305516    0.631106579991151   0.18278303035771423          1.0000   
         H         H         1.0       0.3821964262919144  0.5985321875588178  0.19865758562028807          1.0000   
         C         C         1.0       0.3878446114288882  0.8779883266659971  0.11163188819072746          1.0000   
         C         C         1.0       0.4128257882175749  0.88058810361559    0.09716091926129748          1.0000   
         C         C         1.0       0.44642653312897745           0.8951412928960925 0.10639271890592639          1.0000   
         C         C         1.0       0.45413653417816907           0.9081325904748733 0.12951608861824193          1.0000   
         C         C         1.0       0.4272835282506856  0.9013413897170807  0.1451109011571678 1.0000   
         C         C         1.0       0.3940115016196419  0.8881427732202493  0.13584025110529   1.0000   
         H         H         1.0       0.4076520752420557  0.8702520664425023  0.07920996460799956          1.0000   
         H         H         1.0       0.46653099581093554           0.8997907152717558 0.09474327818532391          1.0000   
         H         H         1.0       0.43046429831193006           0.9089884899389791 0.1640689078509956 1.0000   
         H         H         1.0       0.3734868806978866  0.8857423032778243  0.14652811621597248          1.0000   
         C         C         1.0       0.48450940032985956           0.9746320775105428 0.15902086020982012          1.0000   
         C         C         1.0       0.49972478432294304           0.9564620665278297 0.16060994914801713          1.0000   
         C         C         1.0       0.5253294996749471  0.9657617961190593  0.1788248515537833 1.0000   
         C         C         1.0       0.5318037710799401  0.9883365313790596  0.19717992120904054          1.0000   
         C         C         1.0       0.5166700025564526  0.005863896322124473         0.19451067937191915          1.0000   
         C         C         1.0       0.49434891651288315           0.9998990899040956 0.17550124897055633          1.0000   
         C         C         1.0       0.4943113287320736  0.9308321409313214  0.13897028055362312          1.0000   
         C         C         1.0       0.5194133513882732  0.956788558093651   0.11841556082880955          1.0000   
         C         C         1.0       0.5550319187344671  0.9742828321312571  0.12198826287881478          1.0000   
         C         C         1.0       0.5782103821352818  0.001982213868157112         0.10943580027698063          1.0000   
         C         C         1.0       0.5666066933511896  0.012152681502460627         0.09055811482825549          1.0000   
         C         C         1.0       0.5314623912799371  0.9927153094711189  0.08362388542720467          1.0000   
         C         C         1.0       0.5091035320949094  0.9673804951683869  0.09869827692631726          1.0000   
         C         C         1.0       0.4886825046915627  0.8910849761009413  0.1714932376136982 1.0000   
         C         C         1.0       0.49835308798527983           0.872082890567177  0.1825779183088079 1.0000   
         C         C         1.0       0.518260926606566   0.8636091195894304  0.17049674218372493          1.0000   
         C         C         1.0       0.5281142665304807  0.8742090619998535  0.14690301277751025          1.0000   
         C         C         1.0       0.5203087779839087  0.8944804871627134  0.13596589939209358          1.0000   
         C         C         1.0       0.5018216284757893  0.9048702504846999  0.14906246970095666          1.0000   
         C         C         1.0       0.5329536330291542  0.8425450230056484  0.18322990121100635          1.0000   
         C         C         1.0       0.5831725219642075  0.8868106979178884  0.25465378636416147          1.0000   
         C         C         1.0       0.5681979861776202  0.8534607075485575  0.24960836015783644          1.0000   
         C         C         1.0       0.5511693986432806  0.840476462930322   0.22806470368396722          1.0000   
         C         C         1.0       0.549279325733867   0.8582384389635278  0.21003666916967725          1.0000   
         C         C         1.0       0.5648776471886197  0.8918031869500836  0.21496084296971218          1.0000   
         C         C         1.0       0.5818956547127995  0.9056214057062593  0.23672764052647616          1.0000   
         C         C         1.0       0.5680962131411953  0.8453547115306961  0.17423131727793625          1.0000   
         C         C         1.0       0.5696387609814556  0.8176025931650487  0.17581652806831194          1.0000   
         C         C         1.0       0.6010183099020174  0.8215139847661131  0.17256019765736183          1.0000   
         C         C         1.0       0.6311207019495532  0.851546987135677   0.1662274028975907 1.0000   
         C         C         1.0       0.6294168025878204  0.8787317355563135  0.16379264669255242          1.0000   
         C         C         1.0       0.5980311402396629  0.8756807516115395  0.16792243576024757          1.0000   
         C         C         1.0       0.4747990179945338  0.790993238584647   0.19804283301030648          1.0000   
         C         C         1.0       0.4477067730944528  0.759173370029563   0.19585488245881957          1.0000   
         C         C         1.0       0.4401814269694749  0.7435531785288075  0.1739074746093311 1.0000   
         C         C         1.0       0.4641557209873816  0.7585057725485732  0.15512048926790253          1.0000   
         C         C         1.0       0.49392723111071446           0.7904469930969943 0.1581363068548741 1.0000   
         C         C         1.0       0.49925498727744744           0.806047050697558  0.17984352135110662          1.0000   
         H         H         1.0       0.473694584919912   0.9768044411095275  0.14198748279651827          1.0000   
         H         H         1.0       0.5402936675368011  0.9548734160049956  0.17711933291885687          1.0000   
         H         H         1.0       0.5516549144647658  0.9939766873120671  0.21115704704472424          1.0000   
         H         H         1.0       0.48244804585920886           0.01401309794474015          0.1748042865396001 1.0000   
         H         H         1.0       0.5662905675363371  0.9693898769244582  0.1373784035761188 1.0000   
         H         H         1.0       0.6057542464937626  0.020860998857510804         0.11657093762802107          1.0000   
         H         H         1.0       0.5205760771611558  0.9990778983222109  0.06846297302467597          1.0000   
         H         H         1.0       0.48104906405418885           0.9549052427714855 0.09375072089049508          1.0000   
         H         H         1.0       0.47729360746028987           0.9004228065050196 0.1832143191341666 1.0000   
         H         H         1.0       0.49103180705517696           0.8663609399457857 0.20289267894128227          1.0000   
         H         H         1.0       0.5440609069557746  0.8681746569717621  0.13722458691231643          1.0000   
         H         H         1.0       0.5295968931119567  0.9011531826015023  0.11785586766604687          1.0000   
         H         H         1.0       0.5669619426905508  0.837132604719738   0.2627823803281313 1.0000   
         H         H         1.0       0.5407601854585258  0.8155265944942773  0.22359327108518967          1.0000   
         H         H         1.0       0.5674698225814283  0.9091902144123829  0.20090523937201907          1.0000   
         H         H         1.0       0.5931814423216558  0.9317551229621929  0.2391395504372185 1.0000   
         H         H         1.0       0.5473097650694122  0.7940704761177293  0.18175283790387084          1.0000   
         H         H         1.0       0.6050844817247102  0.8019730274848487  0.17478893204089596          1.0000   
         H         H         1.0       0.6520005601105489  0.9026003282673026  0.15821152151793028          1.0000   
         H         H         1.0       0.5983097523929313  0.8968819765061223  0.16849670180405318          1.0000   
         H         H         1.0       0.4775282407443633  0.8029850420300941  0.21454039328673466          1.0000   
         H         H         1.0       0.42721036941188156           0.747652854599344  0.21067006948270273          1.0000   
         H         H         1.0       0.46018312248396354           0.7454186922491602 0.1372249576213789 1.0000   
         H         H         1.0       0.5107832750858483  0.8001439820635693  0.14152929534822323          1.0000   
         C         C         1.0       0.4552305205467365  0.9076498079046966  0.9885090146672562 1.0000   
         C         C         1.0       0.43025493017062555           0.8748692874953236 0.9863791651016723 1.0000   
         C         C         1.0       0.41189391807838444           0.8622459478925782 0.9644733433208171 1.0000   
         C         C         1.0       0.4160603018063589  0.8833613644147155  0.9449733992678925 1.0000   
         C         C         1.0       0.4479060373900787  0.9149656194181784  0.945590041529422  1.0000   
         C         C         1.0       0.4647879137065753  0.9273427765171597  0.9668906196651605 1.0000   
         H         H         1.0       0.4256764022789119  0.8591583216931437  0.0013659782695010225        1.0000   
         H         H         1.0       0.3919898190747819  0.83706306098763    0.964505161469846  1.0000   
         H         H         1.0       0.45498111352607973           0.9316547081932964 0.9315095463775463 1.0000   
         H         H         1.0       0.4820384022064422  0.9533492363667716  0.967401012065715  1.0000   
         C         C         1.0       0.4031872822960107  0.927628754843477   0.9100713178099812 1.0000   
         C         C         1.0       0.39299890518233266           0.8961279915541944 0.9031295967135545 1.0000   
         C         C         1.0       0.3826624748625672  0.8866126937151243  0.8780621859386873 1.0000   
         C         C         1.0       0.38151356991490115           0.9072963362427062 0.8616904859394422 1.0000   
         C         C         1.0       0.3895423522868882  0.9369976288466073  0.8700113708871916 1.0000   
         C         C         1.0       0.40364944701284516           0.9492067906895209 0.8939944595597287 1.0000   
         C         C         1.0       0.38976522357313054           0.8689088221675756 0.9214581623990198 1.0000   
         C         C         1.0       0.3500863368293831  0.8519665002285152  0.9298500073293394 1.0000   
         C         C         1.0       0.3220588367379224  0.826747178572014   0.9170846206237813 1.0000   
         C         C         1.0       0.2885019341782251  0.8166632493372376  0.9221218597833968 1.0000   
         C         C         1.0       0.2817264838323725  0.832222653368326   0.939432235678039  1.0000   
         C         C         1.0       0.3092977232788619  0.8565654373185735  0.9527476111953292 1.0000   
         C         C         1.0       0.34260821671180625           0.8665293700010731 0.9479893221962868 1.0000   
         C         C         1.0       0.434089985733789   0.8656646643361934  0.8979214312418357 1.0000   
         C         C         1.0       0.44833192490139995           0.8509194135910962 0.8879036753001307 1.0000   
         C         C         1.0       0.4316596719505637  0.8167784819145696  0.8870405181401205 1.0000   
         C         C         1.0       0.3992368464241931  0.798966319459778   0.8989574742847718 1.0000   
         C         C         1.0       0.3859214458470521  0.8149711357615657  0.9113521967868393 1.0000   
         C         C         1.0       0.40309760526656185           0.8478786764986865 0.9107254410685188 1.0000   
         C         C         1.0       0.4501127992489504  0.8004537971926455  0.878051387296736  1.0000   
         C         C         1.0       0.43045072764960385           0.8012268118189951 0.799419342925376  1.0000   
         C         C         1.0       0.4616681819180462  0.8276530018117089  0.8096268144164303 1.0000   
         C         C         1.0       0.4677882864965108  0.8288885222369224  0.8344456894964875 1.0000   
         C         C         1.0       0.4444334507990979  0.8030543838863871  0.8497782851157272 1.0000   
         C         C         1.0       0.4124780007426825  0.7767960073263194  0.8394476319703769 1.0000   
         C         C         1.0       0.4076333859761799  0.775218121256625   0.8143103858974131 1.0000   
         C         C         1.0       0.4377646904615125  0.7639826826978199  0.8883764028207951 1.0000   
         C         C         1.0       0.43121832386644643           0.7578856866943487 0.9132470726490194 1.0000   
         C         C         1.0       0.428112260524718   0.7297565873260189  0.9234924853969698 1.0000   
         C         C         1.0       0.4273557741093323  0.7063167829680681  0.9095937200131078 1.0000   
         C         C         1.0       0.4299323077963365  0.7113536000100574  0.8846723062604435 1.0000   
         C         C         1.0       0.4364178471940509  0.739392758329239   0.8740644831802534 1.0000   
         C         C         1.0       0.5050536464138872  0.8374239050022764  0.906729796048257  1.0000   
         C         C         1.0       0.5372568991843647  0.8499785832854135  0.9160246136321949 1.0000   
         C         C         1.0       0.5570858415725446  0.841701492709438   0.9033604131538863 1.0000   
         C         C         1.0       0.5449695440701977  0.8235016299854055  0.881622552829211  1.0000   
         C         C         1.0       0.512580874074977   0.8138914363868697  0.8728243867137498 1.0000   
         C         C         1.0       0.4912542555556707  0.8195298465189782  0.8857925589133842 1.0000   
         H         H         1.0       0.41111181912882433           0.9363642096467473 0.9294266947053781 1.0000   
         H         H         1.0       0.37379881464312653           0.8614485569853457 0.8731103757278404 1.0000   
         H         H         1.0       0.3743829945492746  0.8985660316278065  0.842612866410952  1.0000   
         H         H         1.0       0.4106173926057295  0.973576436223214   0.8987071526927614 1.0000   
         H         H         1.0       0.32717807376771224           0.8147824782111128 0.9021976552588864 1.0000   
         H         H         1.0       0.2664974577801886  0.8007000030156293  0.9088454839226228 1.0000   
         H         H         1.0       0.3065879585940797  0.871270579125921   0.9656211683780023 1.0000   
         H         H         1.0       0.36559528956769116           0.8859002064875328 0.9592598980232081 1.0000   
         H         H         1.0       0.44628925753573123           0.8918969425405229 0.8973420302627588 1.0000   
         H         H         1.0       0.4742247430888024  0.866157508324065   0.879456233228448  1.0000   
         H         H         1.0       0.385633122829213   0.7723188586052404  0.8981254315347569 1.0000   
         H         H         1.0       0.3637454100426307  0.7995259891798219  0.9240476685266127 1.0000   
         H         H         1.0       0.478777422109397   0.850121727665273   0.7992840486965826 1.0000   
         H         H         1.0       0.48967542246959733           0.8507672739239572 0.8422142527707722 1.0000   
         H         H         1.0       0.39019767893479235           0.7581928155384906 0.8501283556319653 1.0000   
         H         H         1.0       0.38561019052745404           0.7519606550986782 0.8051665029619032 1.0000   
         H         H         1.0       0.43471133119428634           0.7753681846579468 0.9250906252281202 1.0000   
         H         H         1.0       0.4232109657238885  0.7286086066259329  0.943547170223167  1.0000   
         H         H         1.0       0.43045555626894494           0.6926512179201038 0.8722529153682204 1.0000   
         H         H         1.0       0.4454506601930168  0.7450399820670496  0.8551886534417613 1.0000   
         H         H         1.0       0.4883556255521587  0.8399295177926058  0.9192296481025838 1.0000   
         H         H         1.0       0.5451323786811518  0.8632124947846969  0.9329173333411522 1.0000   
         H         H         1.0       0.5606727955658306  0.8178685770323222  0.8711432713868534 1.0000   
         H         H         1.0       0.5039343757520457  0.7992261515107875  0.8556919143069711 1.0000   
         C         C         1.0       0.15679213450632287           0.8245457309534286 0.7914399187864248 1.0000   
         C         C         1.0       0.15907207416045582           0.7986040935501826 0.7963578870389729 1.0000   
         C         C         1.0       0.17809432572226497           0.8000893568852695 0.8158041558242554 1.0000   
         C         C         1.0       0.2002442850915393  0.8284242279887898  0.828871001837925  1.0000   
         C         C         1.0       0.19607475134412417           0.8531478887321827 0.8245542158704366 1.0000   
         C         C         1.0       0.17492144530666467           0.8520029406505217 0.8064803754428465 1.0000   
         H         H         1.0       0.14507229385220197           0.7764014859414402 0.7848520464920773 1.0000   
         H         H         1.0       0.17667634529246923           0.778895616156145  0.822662576499918  1.0000   
         H         H         1.0       0.21475464162457264           0.8761251176313648 0.8336986878488569 1.0000   
         H         H         1.0       0.17164172199944916           0.871951330498025  0.8027069495257431 1.0000   
         C         C         1.0       0.2792049189063739  0.8869227742644274  0.8256446972709074 1.0000   
         C         C         1.0       0.2637105863094136  0.8720091636047261  0.8472015543730083 1.0000   
         C         C         1.0       0.2793818410313232  0.8888530653293502  0.8689435888393001 1.0000   
         C         C         1.0       0.3103434376868943  0.9179022473754177  0.8693577955176056 1.0000   
         C         C         1.0       0.3263015961201757  0.9334218348556576  0.8469337737859813 1.0000   
         C         C         1.0       0.3111850051022041  0.9175935474126885  0.8254574632589667 1.0000   
         C         C         1.0       0.23099527460039912           0.8333399461596022 0.8465604078806849 1.0000   
         C         C         1.0       0.25132707474074656           0.816124597126212  0.8388676420292879 1.0000   
         C         C         1.0       0.2767105230206576  0.8199107679606323  0.8552531657769998 1.0000   
         C         C         1.0       0.2942688998292919  0.8050706130586934  0.8502346182482184 1.0000   
         C         C         1.0       0.28381492042556156           0.7842213169248718 0.8304763614341973 1.0000   
         C         C         1.0       0.2615577989119323  0.7834354890592142  0.8128481280949708 1.0000   
         C         C         1.0       0.2462139336697525  0.800460311748433   0.8167155543834016 1.0000   
         C         C         1.0       0.19664541408049027           0.8329741456748895 0.8845185413059795 1.0000   
         C         C         1.0       0.6570157827906428  0.7650531275972954  0.8852160938444377 1.0000   
         C         C         1.0       0.6316374532873851  0.7326722277865929  0.8841626354402903 1.0000   
         C         C         1.0       0.6369286869209604  0.715320594897262   0.8665706320625244 1.0000   
         C         C         1.0       0.6642342480497175  0.7296589871632113  0.8515453728462409 1.0000   
         C         C         1.0       0.20768412573541034           0.8161686643119245 0.8705703811277958 1.0000   
         C         C         1.0       0.595614013599301   0.7156684784028889  0.8997699199570945 1.0000   
         C         C         1.0       0.6248292055477066  0.6753471456701654  0.9600404754583564 1.0000   
         C         C         1.0       0.624919421504992   0.7039621782076738  0.9624710043846235 1.0000   
         C         C         1.0       0.6134250808649169  0.7160915425951617  0.9448656538441657 1.0000   
         C         C         1.0       0.6040407003415398  0.7001616941773341  0.9221291061308255 1.0000   
         C         C         1.0       0.6028696301504917  0.6720025843750802  0.9191718425279747 1.0000   
         C         C         1.0       0.6136586595643067  0.6598075939840701  0.9374068453008504 1.0000   
         C         C         1.0       0.5608961484053822  0.6892796751352733  0.8853335804685077 1.0000   
         C         C         1.0       0.5560854820947534  0.6920265537183274  0.8605354670414527 1.0000   
         C         C         1.0       0.5271364531760243  0.6678972927068416  0.8481795620741223 1.0000   
         C         C         1.0       0.5007592639249389  0.6411069392622156  0.8604193930773242 1.0000   
         C         C         1.0       0.50409215478424    0.6393055091258049  0.8848617479133247 1.0000   
         C         C         1.0       0.532612987740032   0.6620374153887145  0.8978111630982035 1.0000   
         C         C         1.0       0.5702092963347196  0.7401339476620509  0.9259687712011441 1.0000   
         C         C         1.0       0.568796972451912   0.7647085354669207  0.9358282276527469 1.0000   
         C         C         1.0       0.5841036883888159  0.7937695368595374  0.9232477695661145 1.0000   
         C         C         1.0       0.5932791941381468  0.7939863467104536  0.899138431592369  1.0000   
         C         C         1.0       0.5947208102123007  0.7696154753469007  0.8896960945165807 1.0000   
         C         C         1.0       0.5876339939210456  0.7428491603206149  0.9047124990354005 1.0000   
         H         H         1.0       0.26897792610052307           0.874446551255963  0.8076251565032524 1.0000   
         H         H         1.0       0.27105277370988146           0.8774546017511816 0.887920428633601  1.0000   
         H         H         1.0       0.31933813106176623           0.9298750842379879 0.8869673981394822 1.0000   
         H         H         1.0       0.3250181155809618  0.9276187268753706  0.8086085034857273 1.0000   
         H         H         1.0       0.28509097315401616           0.8342260143153761 0.8736010475814457 1.0000   
         H         H         1.0       0.31073506970451376           0.8063251545850493 0.863830173408238  1.0000   
         H         H         1.0       0.2521521113030939  0.7672911925180064  0.797713644130174  1.0000   
         H         H         1.0       0.22985135737441603           0.802065172662845  0.8039478915442546 1.0000   
         H         H         1.0       0.20668841400866006           0.8580989564761381 0.8805593936102656 1.0000   
         H         H         1.0       0.6566899579570188  0.7792585435166964  0.8997577191007261 1.0000   
         H         H         1.0       0.6186274931913962  0.6890513286453651  0.8661883779026391 1.0000   
         H         H         1.0       0.6639295553002776  0.7137851923363747  0.8383851407129344 1.0000   
         H         H         1.0       0.634951245122912   0.7158687387628923  0.9794175974131787 1.0000   
         H         H         1.0       0.6161067038525447  0.7395500589050987  0.9469218347524232 1.0000   
         H         H         1.0       0.5953318613955597  0.6607506449343638  0.9013358207841038 1.0000   
         H         H         1.0       0.6151574586825537  0.640260468249825   0.9335952097795288 1.0000   
         H         H         1.0       0.5753645744575855  0.7157689071164066  0.8527312963089599 1.0000   
         H         H         1.0       0.5282945164633024  0.6698007288665507  0.8283357395659766 1.0000   
         H         H         1.0       0.48366917301560897           0.6187269425205225 0.8956250932661297 1.0000   
         H         H         1.0       0.5329394322856796  0.6577610242704098  0.9174475529957212 1.0000   
         H         H         1.0       0.5597758266989794  0.7172188617132184  0.9361771497821713 1.0000   
         H         H         1.0       0.5543923105048735  0.7610771733764488  0.952484938937826  1.0000   
         H         H         1.0       0.6016889683354654  0.8152880158345275  0.888729653515274  1.0000   
         H         H         1.0       0.6048723863285599  0.7747663858870159  0.872319142432966  1.0000   
         C         C         1.0       0.174305132123936   0.7887980728803882  0.6861204894194868 1.0000   
         C         C         1.0       0.1976940388037113  0.8222758793622773  0.6895600798384867 1.0000   
         C         C         1.0       0.2051362053437847  0.8421550936257157  0.670603260469968  1.0000   
         C         C         1.0       0.1919638099226781  0.8317000753777155  0.6476071956517419 1.0000   
         C         C         1.0       0.16908834140817866           0.7982901601031404 0.644128692825944  1.0000   
         C         C         1.0       0.15924055990263472           0.7762353047187193 0.6635090461568015 1.0000   
         H         H         1.0       0.21229668786287095           0.8340816316961325 0.7061092013056747 1.0000   
         H         H         1.0       0.2256924250799878  0.8685792300569137  0.6725044922207618 1.0000   
         H         H         1.0       0.16142274393665026           0.7876395783685561 0.6250470052661267 1.0000   
         H         H         1.0       0.14233802743279758           0.7498048112056557 0.6610273532453288 1.0000   
         C         C         1.0       0.24730412743778998           0.8443805004968935 0.609551851255846  1.0000   
         C         C         1.0       0.24319270483431096           0.8675700506101244 0.620318130735151  1.0000   
         C         C         1.0       0.27275712226155835           0.8964162400421548 0.6288449724985133 1.0000   
         C         C         1.0       0.30667681562041954           0.9027553625361034 0.6272938050069803 1.0000   
         C         C         1.0       0.30871331421606    0.8786811974319312  0.6147175655457634 1.0000   
         C         C         1.0       0.2791528009184776  0.8486678961088979  0.6078016030755917 1.0000   
         C         C         1.0       0.20488016347921792           0.8580579819721719 0.6248592826640845 1.0000   
         C         C         1.0       0.203296233191943   0.8898569657176723  0.6276815124282087 1.0000   
         C         C         1.0       0.22046469521344952           0.914902218758063  0.6112190791519706 1.0000   
         C         C         1.0       0.21781810219228642           0.9412497251697078 0.6123699187745565 1.0000   
         C         C         1.0       0.1914818618520073  0.938501227807112   0.6255129180986694 1.0000   
         C         C         1.0       0.17495517740976296           0.9138438117691852 0.6418199944169178 1.0000   
         C         C         1.0       0.1820146748938017  0.8908016514853317  0.6440974394395391 1.0000   
         C         C         1.0       0.18698469167028164           0.8427399930499013 0.5780096804619611 1.0000   
         C         C         1.0       0.6310533195863453  0.871462416747196   0.5725170000903073 1.0000   
         C         C         1.0       0.5982397127185665  0.8649275030761278  0.5720854409427978 1.0000   
         C         C         1.0       0.5850081417069491  0.8642727668172584  0.5949750022587081 1.0000   
         C         C         1.0       0.6017927002248806  0.8684112664135029  0.6167256285936582 1.0000   
         C         C         1.0       0.17796503089231203           0.8409695930069262 0.601990144481827  1.0000   
         C         C         1.0       0.5812901259531232  0.8679131636757496  0.5473630108108428 1.0000   
         C         C         1.0       0.6514601519551014  0.9749552147131516  0.5326895119344722 1.0000   
         C         C         1.0       0.6549518743615569  0.9534623242184938  0.5185994790069907 1.0000   
         C         C         1.0       0.636032452725635   0.9207662894711356  0.5245240582345849 1.0000   
         C         C         1.0       0.6095130090876358  0.9083896780616674  0.5416676221529902 1.0000   
         C         C         1.0       0.6051575853021371  0.9288800073894429  0.5547340323646305 1.0000   
         C         C         1.0       0.6273320083608734  0.962003194070381   0.5517969946410078 1.0000   
         C         C         1.0       0.5414589442544779  0.857165807079293   0.5441642930708986 1.0000   
         C         C         1.0       0.5155271987302259  0.8348999587767644  0.5603305541312495 1.0000   
         C         C         1.0       0.4839246482946843  0.8313037948852694  0.5623918993706281 1.0000   
         C         C         1.0       0.4798933283370048  0.8532453291203775  0.5497180916156582 1.0000   
         C         C         1.0       0.5036189475204174  0.8736285416941287  0.5327535335792659 1.0000   
         C         C         1.0       0.5322004111658227  0.8743151839334955  0.5284312382140339 1.0000   
         C         C         1.0       0.5822989075445907  0.8516224698261532  0.501774435716494  1.0000   
         C         C         1.0       0.5827404442593314  0.8307989450876636  0.48555286486225335          1.0000   
         C         C         1.0       0.5807262439052434  0.8032151164591129  0.4929133160253877 1.0000   
         C         C         1.0       0.573354466263253   0.7942533548374713  0.5167854065508427 1.0000   
         C         C         1.0       0.5724714065018921  0.813285892632838   0.5341352918618139 1.0000   
         C         C         1.0       0.5801909609526632  0.8448172062144986  0.527236714993018  1.0000   
         H         H         1.0       0.2256967627450356  0.8228184145699511  0.6014068020644113 1.0000   
         H         H         1.0       0.26938351002108907           0.9123830928164814 0.638857221492705  1.0000   
         H         H         1.0       0.3282750940460083  0.9275901459243413  0.6314822724949941 1.0000   
         H         H         1.0       0.28345668129575885           0.8324111044100294 0.5992409269238512 1.0000   
         H         H         1.0       0.23490595127796418           0.9122969870585659 0.5981738396781695 1.0000   
         H         H         1.0       0.23267535699891076           0.9638371315451076 0.600699162809867  1.0000   
         H         H         1.0       0.15539297981932695           0.9114568525107134 0.6543339044247509 1.0000   
         H         H         1.0       0.16820046369510097           0.871982774221848  0.6575673630788528 1.0000   
         H         H         1.0       0.21503032781996956           0.8555111727864245 0.5716987949011424 1.0000   
         H         H         1.0       0.642434465445906   0.8711303465932085  0.5561560775911817 1.0000   
         H         H         1.0       0.5602734718556381  0.8611459162066752  0.5973739115473388 1.0000   
         H         H         1.0       0.5890449672340112  0.8676176684749176  0.6328857178891256 1.0000   
         H         H         1.0       0.6732019594735406  0.9646754478338206  0.5031805106617063 1.0000   
         H         H         1.0       0.6423811423043311  0.9068993312963736  0.5158326325073529 1.0000   
         H         H         1.0       0.5872821411592802  0.9189855978267987  0.570876990769525  1.0000   
         H         H         1.0       0.6251115683352457  0.9790089898983206  0.5624467429958323 1.0000   
         H         H         1.0       0.520689925650501   0.8207122985428454  0.5722758903515486 1.0000   
         H         H         1.0       0.46717158715366053           0.8159292338308223 0.5760466993256822 1.0000   
         H         H         1.0       0.4993380764298644  0.8880473857273479  0.5216553746669094 1.0000   
         H         H         1.0       0.5480900489586389  0.8900568090706088  0.5134886890450364 1.0000   
         H         H         1.0       0.5866669678142963  0.8731493886024486  0.49444682866142303          1.0000   
         H         H         1.0       0.5894404618999893  0.8367867432901018  0.46570451385864475          1.0000   
         H         H         1.0       0.5747430995295609  0.7745316578204914  0.5237542477600362 1.0000   
         H         H         1.0       0.571367577885188   0.8078997790537744  0.5523443121692213 1.0000   
         C         C         1.0       0.4244008162961111  0.05926949720236463           0.4747970163913561 1.0000   
         C         C         1.0       0.39449821416394937           0.04051630947941409          0.461100320528434  1.0000   
         C         C         1.0       0.36573918573687786           0.01444994417597334          0.47366477977245697          1.0000   
         C         C         1.0       0.3666411901066171  0.006684209110481731         0.497996911405567  1.0000   
         C         C         1.0       0.39589028640826834           0.029513865842528242         0.5116603094210724 1.0000   
         C         C         1.0       0.42378320584631    0.05592112474709299           0.5000509935087409 1.0000   
         H         H         1.0       0.39087537364819136           0.046166463319059714         0.44284396283356176          1.0000   
         H         H         1.0       0.3425427756329196  0.00219713641244601           0.4627042354138143 1.0000   
         H         H         1.0       0.39657703971015973           0.025282260962911307         0.5315256794673229 1.0000   
         H         H         1.0       0.4440409715927715  0.07265191752284306           0.513643700193496  1.0000   
         C         C         1.0       0.3692717659392835  0.9549183198582056  0.5306865811573309 1.0000   
         C         C         1.0       0.33943616966834816           0.956002089287593  0.5324424821610675 1.0000   
         C         C         1.0       0.3120991521424795  0.9326243183778262  0.5470938407623829 1.0000   
         C         C         1.0       0.31443911874500496           0.9123149885356984 0.5619914348980262 1.0000   
         C         C         1.0       0.3444971320285297  0.9132796418298595  0.5628954143415724 1.0000   
         C         C         1.0       0.3722189570528749  0.9347655888076206  0.5480436269988376 1.0000   
         C         C         1.0       0.33255363771807217           0.9770947212560002 0.5136173809421691 1.0000   
         C         C         1.0       0.3073752647926514  0.9481644080421473  0.4944376030951546 1.0000   
         C         C         1.0       0.27158594642571204           0.9293119871465729 0.49603064051377976          1.0000   
         C         C         1.0       0.2523707593433143  0.901135947365042   0.48351247510712353          1.0000   
         C         C         1.0       0.26626840952487607           0.8895475737825241 0.4677552840773549 1.0000   
         C         C         1.0       0.30142164562870694           0.9072087886751969 0.46567362911325677          1.0000   
         C         C         1.0       0.32269052295830225           0.937355445070075  0.4783707297100886 1.0000   
         C         C         1.0       0.36749887594956954           0.6156834633382928 0.46523072422147804          1.0000   
         C         C         1.0       0.3803313128684438  0.6422603914598529  0.480471618945022  1.0000   
         C         C         1.0       0.39386723473250124           0.6735388194619332 0.4712931471938865 1.0000   
         C         C         1.0       0.39474151010593184           0.6777013401047399 0.4463770412614143 1.0000   
         C         C         1.0       0.37998461926356547           0.6510505440293427 0.4310662849922549 1.0000   
         C         C         1.0       0.36954555764743574           0.6205012314366709 0.44023909300165776          1.0000   
         C         C         1.0       0.4167305262681831  0.7058191712802161  0.48834151031298717          1.0000   
         C         C         1.0       0.4036263488950754  0.6760568346189254  0.566469924287751  1.0000   
         C         C         1.0       0.43657292127168934           0.6958755978537964 0.5575515082857134 1.0000   
         C         C         1.0       0.4415670052029744  0.705948836227919   0.5337317729505888 1.0000   
         C         C         1.0       0.41380594849484914           0.6965127074422586 0.5171822185784875 1.0000   
         C         C         1.0       0.3818268061770376  0.6818147092522141  0.5275796761118843 1.0000   
         C         C         1.0       0.37631977373599    0.6703866830407389  0.5514430976465612 1.0000   
         C         C         1.0       0.40582572238067466           0.7308100240284637 0.4866341671928891 1.0000   
         C         C         1.0       0.42735995066523336           0.7617438283156855 0.4987278348175584 1.0000   
         C         C         1.0       0.4200003038028511  0.7851254888560207  0.4971971631794127 1.0000   
         C         C         1.0       0.390017889917465   0.7783285139921007  0.48622966878235757          1.0000   
         C         C         1.0       0.36723827322863384           0.7471063311615637 0.4765090268100458 1.0000   
         C         C         1.0       0.3761583603000688  0.724612359825642   0.47533564528198885          1.0000   
         C         C         1.0       0.47297943651768753           0.7063823878420746 0.4827220617567906 1.0000   
         C         C         1.0       0.5049256199068678  0.7189190690721315  0.4732208404246169 1.0000   
         C         C         1.0       0.5212085290738903  0.7477144086320516  0.46091954196799884          1.0000   
         C         C         1.0       0.5043909782882198  0.7626361110574547  0.45478419891770244          1.0000   
         C         C         1.0       0.4716419036601959  0.7478540351389058  0.46268065164231587          1.0000   
         C         C         1.0       0.45655936400426295           0.7222466647913728 0.47894262255573544          1.0000   
         H         H         1.0       0.3895007082689561  0.9701247110428292  0.5175146178891962 1.0000   
         H         H         1.0       0.2869174596033363  0.9294512671097479  0.54691559235383   1.0000   
         H         H         1.0       0.2907600867902248  0.8953314621831892  0.5725343010739312 1.0000   
         H         H         1.0       0.39807253134785736           0.9376076260655007 0.549289715232223  1.0000   
         H         H         1.0       0.2620381792426872  0.9367961607169191  0.511053059116032  1.0000   
         H         H         1.0       0.22392511080661878           0.8864235815039695 0.48444556930065785          1.0000   
         H         H         1.0       0.31081090791533744           0.8977549886819516 0.45303142417488446          1.0000   
         H         H         1.0       0.349719425724635   0.9461774181020287  0.4772310679886172 1.0000   
         H         H         1.0       0.3367540186095025  0.00252404459042066           0.5614865091479444 1.0000   
         H         H         1.0       0.38031601826239964           0.6384116049650369 0.499222920766757  1.0000   
         H         H         1.0       0.4074304582514962  0.7024054089426294  0.43815167934997346          1.0000   
         H         H         1.0       0.3819551896386975  0.6546253774345607  0.41160844486193104          1.0000   
         H         H         1.0       0.45843414732973065           0.7058566393979    0.569722172880339  1.0000   
         H         H         1.0       0.4693110687500154  0.7234524783688451  0.5276391445848653 1.0000   
         H         H         1.0       0.3582431766592023  0.6749394279042107  0.517054038849283  1.0000   
         H         H         1.0       0.34967265739618836           0.6547247594984141 0.5579914313080239 1.0000   
         H         H         1.0       0.44908350439248745           0.7681577916293175 0.510044019303646  1.0000   
         H         H         1.0       0.43743002250463703           0.8068265149544075 0.5069587321965643 1.0000   
         H         H         1.0       0.3411987713664022  0.7392839414270103  0.4684763957718515 1.0000   
         H         H         1.0       0.3579837053732192  0.6990010053211612  0.4695656335168969 1.0000   
         H         H         1.0       0.46147905745921364           0.6835968919048643 0.49345118501102353          1.0000   
         H         H         1.0       0.5192060567304139  0.7080583613006496  0.4791241502810015 1.0000   
         H         H         1.0       0.5153592551186019  0.782267173642102   0.4411542222151206 1.0000   
         H         H         1.0       0.46026101076250914           0.7596080690543096 0.45637903532471835          1.0000   
         C         C         1.0       0.36798335567799595           0.18591630792003455          0.7627141484010095 1.0000   
         C         C         1.0       0.3712751992467951  0.1610459033446967  0.7705752905496429 1.0000   
         C         C         1.0       0.34182030925320983           0.12997339878888958          0.7730977833248054 1.0000   
         C         C         1.0       0.3097058795931181  0.12226209034398128           0.7647822015190462 1.0000   
         C         C         1.0       0.3075385459726202  0.14913016962045278           0.7597660828523615 1.0000   
         C         C         1.0       0.33667998215521855           0.18116389422188783          0.7581236986030203 1.0000   
         H         H         1.0       0.3971191639426199  0.16621965215719658           0.7749567633713145 1.0000   
         H         H         1.0       0.3435509513797111  0.1123543254302033  0.7831911725794409 1.0000   
         H         H         1.0       0.47336338803037764           0.6517650065969359 0.7591989258061757 1.0000   
         H         H         1.0       0.4757734001299603  0.6215700373248544  0.7953256859664172 1.0000   
         C         C         1.0       0.49795233004513684           0.7136692082296584 0.7458156051109306 1.0000   
         C         C         1.0       0.46591511294892873           0.6944495461791037 0.7332377095683094 1.0000   
         C         C         1.0       0.4673712480662137  0.7033425917485041  0.7080829420204929 1.0000   
         C         C         1.0       0.49697109505686343           0.7305775404464459 0.6974179930610644 1.0000   
         C         C         1.0       0.5258067093757112  0.7486560830854982  0.7122827083551326 1.0000   
         C         C         1.0       0.5272462412670016  0.7384391387146704  0.7354219505836802 1.0000   
         C         C         1.0       0.27460334470978004           0.08526945193702029          0.7642356731140948 1.0000   
         C         C         1.0       0.25803888421906523           0.08501101813939371          0.790215365704872  1.0000   
         C         C         1.0       0.2665497738794634  0.07610396765002281           0.811973772915168  1.0000   
         C         C         1.0       0.250024227791384   0.07231606394059176           0.833737633196219  1.0000   
         C         C         1.0       0.4065789827172014  0.7427906912596842  0.7562819060609139 1.0000   
         C         C         1.0       0.43347825254818884           0.7444632672094673 0.7676516839321068 1.0000   
         C         C         1.0       0.43650518676800804           0.7180103570611548 0.7672221950322994 1.0000   
         C         C         1.0       0.3055160704903785  0.061420401329613794         0.7449221809845771 1.0000   
         C         C         1.0       0.3026492174526845  0.033783170614320124         0.7363216444977636 1.0000   
         C         C         1.0       0.273290747863468   0.0023624833522084554        0.7396061738358412 1.0000   
         C         C         1.0       0.25088324995556044           0.998030921342305  0.7579560882505351 1.0000   
         C         C         1.0       0.25546458936586003           0.02554152463824466          0.7696126690338312 1.0000   
         C         C         1.0       0.28129359494855244           0.0576745476560061 0.7617737887167894 1.0000   
         C         C         1.0       0.2656309054702659  0.9739987180400114  0.7209443582292753 1.0000   
         C         C         1.0       0.227737628532986   0.9997857770501679  0.6575871766507814 1.0000   
         C         C         1.0       0.2579583779009481  0.0032665201620447615        0.6574834681933259 1.0000   
         C         C         1.0       0.27089200232228167           0.9967329346341202 0.6767496283237783 1.0000   
         C         C         1.0       0.25155040751095004           0.9830403506005336 0.6978102903745717 1.0000   
         C         C         1.0       0.21980050541047294           0.9806766760500002 0.6991511111329081 1.0000   
         C         C         1.0       0.20739419907496337           0.9871347552775142 0.678366045820172  1.0000   
         C         C         1.0       0.23669241156599974           0.9358253405525956 0.7285400769316558 1.0000   
         C         C         1.0       0.23860462590581388           0.9234025387293802 0.7517963067209118 1.0000   
         C         C         1.0       0.21770392681617834           0.8913836493178234 0.7558713577527862 1.0000   
         C         C         1.0       0.19170957390492857           0.8688389016704551 0.740373447027377  1.0000   
         C         C         1.0       0.18849782904635268           0.882086881121845  0.7195255041272077 1.0000   
         C         C         1.0       0.21178670826370913           0.913932322117629  0.712452660910264  1.0000   
         C         C         1.0       0.29434679155409027           0.9512354611474854 0.6958031095698268 1.0000   
         C         C         1.0       0.3255624406780075  0.9553468543319473  0.6884938337400965 1.0000   
         C         C         1.0       0.3544764835141492  0.9732254142184462  0.7030920668981274 1.0000   
         C         C         1.0       0.35335115375787085           0.986354233803849  0.7242494503149578 1.0000   
         C         C         1.0       0.325709871231365   0.9862917980581752  0.7297496365658253 1.0000   
         C         C         1.0       0.29602110274933097           0.9698732112024342 0.7155953664632972 1.0000   
         H         H         1.0       0.4995467870777838  0.7090268333092941  0.7647947387666179 1.0000   
         H         H         1.0       0.2970590665249092  0.11193287468265467           0.7175188953381554 1.0000   
         H         H         1.0       0.49727742859867285           0.738767926944967  0.6792630113923178 1.0000   
         H         H         1.0       0.5512440883837484  0.7527054415787835  0.745885636127734  1.0000   
         H         H         1.0       0.2859155484938422  0.07111260101302208           0.8140999444031842 1.0000   
         H         H         1.0       0.25527410119255023           0.060868195207958165         0.8489536853047468 1.0000   
         H         H         1.0       0.4514231482006848  0.7652071179669382  0.7803062837883159 1.0000   
         H         H         1.0       0.45346786553127455           0.7159939094753702 0.7795466991721378 1.0000   
         H         H         1.0       0.32622329645500775           0.08743330165947061          0.7395335402629142 1.0000   
         H         H         1.0       0.3203363740186231  0.041472207122860816         0.7217166321119052 1.0000   
         H         H         1.0       0.2285654319990061  0.9757792435102943  0.7616887930569567 1.0000   
         H         H         1.0       0.23418500679670332           0.021891371325338138         0.7827397222642198 1.0000   
         H         H         1.0       0.27469224240131357           0.012846630421703864         0.6415072068644854 1.0000   
         H         H         1.0       0.2961659023416454  0.0023131870251085207        0.675638749645683  1.0000   
         H         H         1.0       0.2057759213808221  0.9717112503638125  0.7156894748224614 1.0000   
         H         H         1.0       0.18111819609955057           0.9832422125205901 0.6784350579604442 1.0000   
         H         H         1.0       0.26038438822355575           0.9407207078550753 0.7624185138825637 1.0000   
         H         H         1.0       0.22185953733323924           0.8828243930135328 0.7725243076197408 1.0000   
         H         H         1.0       0.16642363440178806           0.865615339353411  0.7078713439253893 1.0000   
         H         H         1.0       0.20792403644676638           0.9203390192110483 0.6931447946313058 1.0000   
         H         H         1.0       0.27254467627000833           0.938544553542698  0.6837039898749797 1.0000   
         H         H         1.0       0.32683666995974836           0.9487748705778053 0.6699219620464674 1.0000   
         H         H         1.0       0.3738653569201167  0.0009921838605759792        0.7383794747512107 1.0000   
         H         H         1.0       0.32438733305052525           0.9931143950967569 0.7486641503640238 1.0000   
         C         C         1.0       0.43960500104087885           0.8585227546955556 0.5978152530895955 1.0000   
         C         C         1.0       0.4083052205876366  0.8288062048978788  0.6018829217570331 1.0000   
         C         C         1.0       0.40338739543817326           0.8103627250086259 0.6229269671419772 1.0000   
         C         C         1.0       0.4324709052174845  0.82109428448127    0.6386575090205935 1.0000   
         C         C         1.0       0.46264464693392604           0.8531866205507646 0.6351198279093879 1.0000   
         C         C         1.0       0.46666286175639127           0.8709842825420667 0.6141064069518719 1.0000   
         H         H         1.0       0.38676835365249007           0.8209144568980399 0.5896290850368883 1.0000   
         H         H         1.0       0.378128684801883   0.7871094854724298  0.6243414300626938 1.0000   
         H         H         1.0       0.48373050539805146           0.8628411407664291 0.6480653248929246 1.0000   
         H         H         1.0       0.4922366372984276  0.8960885397290582  0.6108165516592846 1.0000   
         C         C         1.0       0.49310564205512075           0.8175668968071137 0.6635630337439595 1.0000   
         C         C         1.0       0.461498300582731   0.8029585246477347  0.6745386023762403 1.0000   
         C         C         1.0       0.4560063303784899  0.7882240424616744  0.6970498906710368 1.0000   
         C         C         1.0       0.48323380712401354           0.7913774451132594 0.7091074972918597 1.0000   
         C         C         1.0       0.5162199588873424  0.8064078592066388  0.6987466923029905 1.0000   
         C         C         1.0       0.5204830943886     0.8191157193361093  0.6748421241681408 1.0000   
         C         C         1.0       0.4291556654224128  0.7962607465991349  0.6591352223688726 1.0000   
         C         C         1.0       0.41564788111417594           0.7616813299884019 0.6484106476955668 1.0000   
         C         C         1.0       0.39430085365301815           0.7318232536278476 0.6597614967330419 1.0000   
         C         C         1.0       0.3817796226107252  0.7023136604754292  0.6477438933042969 1.0000   
         C         C         1.0       0.39129583994958167           0.7012964373766524 0.6245254568656038 1.0000   
         C         C         1.0       0.4152816899411898  0.7310093289032765  0.6130840167721842 1.0000   
         C         C         1.0       0.42852258504828034           0.7609656428928794 0.6253098652975132 1.0000   
         C         C         1.0       0.4192010212556842  0.8263474607721215  0.6922859252595184 1.0000   
         C         C         1.0       0.40010979548874515           0.8330225738152148 0.7060181895576516 1.0000   
         C         C         1.0       0.3638841464297591  0.8131552026141909  0.706570753511814  1.0000   
         C         C         1.0       0.3486505921262338  0.7840020949006608  0.6933982712254411 1.0000   
         C         C         1.0       0.3675739418981029  0.7773564731664921  0.6782489038941194 1.0000   
         C         C         1.0       0.40307114766555785           0.7988303003687242 0.6770278576571629 1.0000   
         C         C         1.0       0.341395306531948   0.8228699090110131  0.7198282217953439 1.0000   
         C         C         1.0       0.3354653481660187  0.7845038941589193  0.7934301024938691 1.0000   
         C         C         1.0       0.3571398385800782  0.8176936333192756  0.7884403746615481 1.0000   
         C         C         1.0       0.3610782717315491  0.8301944385880414  0.7660998809457161 1.0000   
         C         C         1.0       0.34419106890792567           0.8092976963535417 0.7460155439314086 1.0000   
         C         C         1.0       0.3249512450746143  0.7757517918581622  0.7508093198612148 1.0000   
         C         C         1.0       0.3171611344085676  0.7623711726487917  0.7740881688373792 1.0000   
         C         C         1.0       0.30225086241838434           0.8074264404415111 0.7151706055459754 1.0000   
         C         C         1.0       0.2897995407208461  0.7987964016858435  0.6910800895353756 1.0000   
         C         C         1.0       0.25574021927578255           0.7850277398539989 0.6851740292845677 1.0000   
         C         C         1.0       0.2302354518739596  0.7752580300493718  0.7027509691926787 1.0000   
         C         C         1.0       0.24340636339162738           0.7864621623155417 0.7269851017596267 1.0000   
         C         C         1.0       0.2781973206555601  0.8025910613851827  0.7334519356303083 1.0000   
         C         C         1.0       0.3510426985168953  0.8775321288893516  0.7356644614018237 1.0000   
         C         C         1.0       0.365076600975246   0.9108406814875926  0.7338940600382973 1.0000   
         C         C         1.0       0.3830002799166578  0.928622919270011   0.7136630977435683 1.0000   
         C         C         1.0       0.38686041512319    0.9126275293900901  0.6950726668179962 1.0000   
         C         C         1.0       0.37492514444803365           0.8799225648819669 0.695749463558511  1.0000   
         C         C         1.0       0.35732775762577546           0.8609753209800103 0.7165898067368831 1.0000   
         H         H         1.0       0.5002780748947856  0.826964049993631   0.6442547735114246 1.0000   
         H         H         1.0       0.4316552138445783  0.7769608405519998  0.7063955194024183 1.0000   
         H         H         1.0       0.47823511331727575           0.7799114883365666 0.7269555480660838 1.0000   
         H         H         1.0       0.5464955891661936  0.8357592021917323  0.667168620144702  1.0000   
         H         H         1.0       0.3868482829469043  0.7318373089420123  0.6789436341349057 1.0000   
         H         H         1.0       0.3649396825985763  0.6792801202956403  0.6571126943512119 1.0000   
         H         H         1.0       0.4291825082425821  0.7319300740628534  0.5960365545369134 1.0000   
         H         H         1.0       0.44811064725055655           0.783414276777533  0.6164714185898612 1.0000   
         H         H         1.0       0.4460882071252367  0.8461165803388047  0.6916786205302876 1.0000   
         H         H         1.0       0.4128346006098674  0.8544242775761584  0.7180055064482033 1.0000   
         H         H         1.0       0.32182430667650663           0.7662872769015596 0.6945380972060259 1.0000   
         H         H         1.0       0.3523239713345951  0.7568422299799098  0.6667797540695913 1.0000   
         H         H         1.0       0.3726641368757459  0.8342340506409719  0.8035146425611513 1.0000   
         H         H         1.0       0.3792145198876167  0.8579322622753667  0.7664510226608183 1.0000   
         H         H         1.0       0.31321588576881376           0.758716839988195  0.7359847294826236 1.0000   
         H         H         1.0       0.3001190749653024  0.7354275021577613  0.7784285700139872 1.0000   
         H         H         1.0       0.3082483790989429  0.8041523405121694  0.6773097018871223 1.0000   
         H         H         1.0       0.24670786103866854           0.7778641403283427 0.6664272035983145 1.0000   
         H         H         1.0       0.2249265852476312  0.7754213145512855  0.7433117614508525 1.0000   
         H         H         1.0       0.28840124619002067           0.8119127683725798 0.7512665085047746 1.0000   
         H         H         1.0       0.33681710665825404           0.8621554437955613 0.7501667640790303 1.0000   
         H         H         1.0       0.357984436071343   0.9212431431671156  0.7489113511715619 1.0000   
         H         H         1.0       0.4014112424931674  0.9268062197653117  0.6787241410101051 1.0000   
         H         H         1.0       0.3796312537172254  0.870104997530999   0.6800760410925258 1.0000   
         C         C         1.0       0.5564810595384577  0.7846786333771467  0.7064388440608054 1.0000   
         C         C         1.0       0.5483538270628967  0.8113609377004719  0.7124977840807405 1.0000   
         H         H         1.0       0.5802891917048824  0.789466013887185   0.7163464131295668 1.0000   
         H         H         1.0       0.5591328762517165  0.7827925197437746  0.6875183673048642 1.0000   
         H         H         1.0       0.5740287691662431  0.8374093431467174  0.7113239692692012 1.0000   
         H         H         1.0       0.5442963656770281  0.8102066061571116  0.7312491166823573 1.0000   
         C         C         1.0       0.4036146318242865  0.9653595475295976  0.7155237442479588 1.0000   
         C         C         1.0       0.3903949842953357  0.9798582171913509  0.6967423991515325 1.0000   
         H         H         1.0       0.39919555512769345           0.9718692165146765 0.7343011578635209 1.0000   
         H         H         1.0       0.4327839673091336  0.9786583279694042  0.7118365949184432 1.0000   
         H         H         1.0       0.39042588585931925           0.9698987044125585 0.6782469120521903 1.0000   
         H         H         1.0       0.40901128334908166           0.006086876104728578         0.6970782637954563 1.0000   
         C         C         1.0       0.3998758620585481  0.6643098610268335  0.5934225557282743 1.0000   
         C         C         1.0       0.37645757106966893           0.6676752722469603 0.6123184079587003 1.0000   
         H         H         1.0       0.42576694365021284           0.6725262766012935 0.6028003859340682 1.0000   
         H         H         1.0       0.38581083828665397           0.6375021636306213 0.5936936643896658 1.0000   
         H         H         1.0       0.36880956434907997           0.6483812978451051 0.627105757674168  1.0000   
         H         H         1.0       0.3522490597769701  0.6619076563068887  0.6027785147616945 1.0000   
         C         C         1.0       0.18258229476285012           0.965248064131314  0.6236645271225962 1.0000   
         C         C         1.0       0.2117411808486172  0.0010015616431264807        0.6321929401415213 1.0000   
         H         H         1.0       0.17728269031758126           0.9679116772156415 0.6033932270484808 1.0000   
         H         H         1.0       0.15830405537528713           0.9565099940264679 0.6335517712950182 1.0000   
         H         H         1.0       0.23289947338437128           0.011232604822457803         0.6179293522894613 1.0000   
         H         H         1.0       0.20089975156896342           0.01591913279553392          0.6330280621807745 1.0000   
         C         C         1.0       0.34688251332684145           0.8937150335701406 0.6088105015446463 1.0000   
         C         C         1.0       0.3498122188694971  0.891038150357177   0.5804923760422029 1.0000   
         H         H         1.0       0.3661859757624259  0.9177126766989143  0.6163691577228844 1.0000   
         H         H         1.0       0.357724968078352   0.8817409787128645  0.6184349778367871 1.0000   
         H         H         1.0       0.3757221089480521  0.8969616432121048  0.5776467243061545 1.0000   
         H         H         1.0       0.3351344914431178  0.865106731129521   0.5742075963397607 1.0000   
         C         C         1.0       0.5871471788587581  0.7826791062389431  0.47533333581663123          1.0000   
         C         C         1.0       0.5590571824253296  0.7662840081767949  0.453885950029399  1.0000   
         H         H         1.0       0.6144048944497118  0.7972090384302533  0.46832718852170047          1.0000   
         H         H         1.0       0.5841257852487841  0.7625305811186236  0.4864570215441318 1.0000   
         H         H         1.0       0.566376771374233   0.7504593500521121  0.4448312426742631 1.0000   
         H         H         1.0       0.5626653021061292  0.7847729557603184  0.43979262529962154          1.0000   
         C         C         1.0       0.17033181178291462           0.7639137839941682 0.7047170580408784 1.0000   
         C         C         1.0       0.1913134807601042  0.7503405809587008  0.6971836807015911 1.0000   
         H         H         1.0       0.14306333289121118           0.7429450451775612 0.7074565663777568 1.0000   
         H         H         1.0       0.17935812893960992           0.7761321500886168 0.7236502911861371 1.0000   
         H         H         1.0       0.18656520135917082           0.7423286919385985 0.6780447349501234 1.0000   
         H         H         1.0       0.18316687169800247           0.7279579399862459 0.7091128206437946 1.0000   
         C         C         1.0       0.44531870211482294           0.874967574606994  0.5729101144163865 1.0000   
         C         C         1.0       0.4461506420954111  0.8525455417203557  0.5522691158028257 1.0000   
         H         H         1.0       0.4712302516023649  0.9007478150221363  0.5699648776148669 1.0000   
         H         H         1.0       0.42453855047319433           0.8792773732526401 0.5706047953079785 1.0000   
         H         H         1.0       0.44222138742516726           0.8611720965561731 0.5349150184384946 1.0000   
         H         H         1.0       0.42306648560274096           0.8270000999035355 0.5533653215453026 1.0000   
         C         C         1.0       0.29334042835605134           0.7586887061635507 0.8286311173330898 1.0000   
         C         C         1.0       0.33049178533143564           0.7714379086453884 0.818992722792709  1.0000   
         H         H         1.0       0.28814308807334515           0.7472578261839911 0.846721787730237  1.0000   
         H         H         1.0       0.27281729655367426           0.737265556660691  0.8172310348388259 1.0000   
         H         H         1.0       0.3367288426915497  0.7527749791709373  0.8194762403577398 1.0000   
         H         H         1.0       0.3503855735515856  0.7888752727395187  0.8322892979775384 1.0000   
         C         C         1.0       0.14209931402808545           0.8270749021519731 0.7677793894386857 1.0000   
         C         C         1.0       0.1678890293010783  0.8337304255044601  0.7465817973571665 1.0000   
         H         H         1.0       0.11455533997348863           0.8048199314624284 0.7646816202867713 1.0000   
         H         H         1.0       0.1375925135613624  0.8472372351503644  0.7688149084084731 1.0000   
         H         H         1.0       0.1516525256007261  0.8219175183734954  0.7307558630177475 1.0000   
         H         H         1.0       0.182148293174415   0.8210533522767557  0.7491894113999419 1.0000   
         C         C         1.0       0.47051385859264433           0.6114509537116326 0.8471497159739693 1.0000   
         C         C         1.0       0.43895225007166483           0.6111364343802854 0.8395498554473589 1.0000   
         H         H         1.0       0.47987464149475145           0.6044641827166379 0.8308057589224599 1.0000   
         H         H         1.0       0.4637417620370654  0.5901204739757883  0.8598375739331752 1.0000   
         H         H         1.0       0.41729313824986086           0.5826438147603035 0.8380796541980625 1.0000   
         H         H         1.0       0.4240267010634055  0.21594807361572022           0.7512747994293236 1.0000   
         C         C         1.0       0.3990010524091544  0.7688701795079849  0.7583080242130177 1.0000   
         C         C         1.0       0.42533165526507577           0.8034402529068845 0.771464919864032  1.0000   
         H         H         1.0       0.39807920226085997           0.7767583107430898 0.7385825393303062 1.0000   
         H         H         1.0       0.37102018078137766           0.7564000300596592 0.7643823193831417 1.0000   
         H         H         1.0       0.4508005713827305  0.8133691094865985  0.7603402509125474 1.0000   
         H         H         1.0       0.41679472750785157           0.8196000418491829 0.7684631305721535 1.0000   
         C         C         1.0       0.3629807606531427  0.9655316165645699  0.8505451837585151 1.0000   
         C         C         1.0       0.3914937595686726  0.9589334833601035  0.850409811842912  1.0000   
         H         H         1.0       0.3660199540481722  0.9828849569224661  0.8363812593357967 1.0000   
         H         H         1.0       0.36252123185739726           0.9771613167992013 0.8685263260525733 1.0000   
         H         H         1.0       0.3891328830870416  0.9503840749157735  0.8314757460235058 1.0000   
         H         H         1.0       0.41547404818964107           0.983344241521765  0.8510711094154907 1.0000   
         C         C         1.0       0.585759054350445   0.8240503971066244  0.9326131772207438 1.0000   
         C         C         1.0       0.5913992547694557  0.851681751676088   0.9159607876996815 1.0000   
         H         H         1.0       0.5609422289974313  0.8136327880168934  0.9433608604267869 1.0000   
         H         H         1.0       0.606214613718689   0.8347382832724275  0.9468158918103677 1.0000   
         H         H         1.0       0.6129570528827087  0.8595101046598813  0.901643121191455  1.0000   
         H         H         1.0       0.6015565338438994  0.8754645590008501  0.9254396326315809 1.0000   
         C         C         1.0       0.5273379862954389  0.03449233199957069           0.21199621215519512          1.0000   
         C         C         1.0       0.5019582031810839  0.02402063846726188           0.2332387157479145 1.0000   
         H         H         1.0       0.5537603437758356  0.04849380956683769           0.22146204691858423          1.0000   
         H         H         1.0       0.5286102089420185  0.05431910579982713           0.2014930032452671 1.0000   
         H         H         1.0       0.47468290994946605           0.01281828110232719          0.22602247998600214          1.0000   
         H         H         1.0       0.4996923717057396  0.002466943907068586         0.24344647758489243          1.0000   
         C         C         1.0       0.4037056946258415  0.7112012857132342  0.16934505908200964          1.0000   
         C         C         1.0       0.39852053975901874           0.6843208712786781 0.15288074511964386          1.0000   
         H         H         1.0       0.3909030341377094  0.6978647019518571  0.18712639459200792          1.0000   
         H         H         1.0       0.3862509389000478  0.7185814158217414  0.16417757898945215          1.0000   
         H         H         1.0       0.412056697962673   0.6961570889559915  0.13626633002151725          1.0000   
         H         H         1.0       0.37029745946077197           0.6684520772048418 0.14854045203591904          1.0000   
         C         C         1.0       0.060833190537189476          0.9349882239687064 0.2932251248750857 1.0000   
         C         C         1.0       0.6068102022741382  0.9035682608751828  0.2776003871908963 1.0000   
         H         H         1.0       0.06885971220707025           0.9540682618150569 0.30842585012417617          1.0000   
         H         H         1.0       0.06992619979644157           0.9539752847658859 0.2784339102759612 1.0000   
         H         H         1.0       0.6157944096740404  0.9290637506472139  0.28066798144292304          1.0000   
         H         H         1.0       0.5906602452280785  0.8871241751644384  0.29314178673319563          1.0000   
         C         C         1.0       0.08285901414990987           0.7934425454424726 0.22588074484606563          1.0000   
         C         C         1.0       0.5164450108438587  0.6836776934576436  0.2812290003007568 1.0000   
         H         H         1.0       0.09875625665640152           0.803155284466706  0.20950599367770684          1.0000   
         H         H         1.0       0.07939432011016671           0.7692914035211357 0.22879142639411892          1.0000   
         H         H         1.0       0.5278928576520932  0.7098114631824272  0.2769230912279608 1.0000   
         H         H         1.0       0.49856195065700726           0.6781138638177677 0.2964108364012274 1.0000   
         C         C         1.0       0.38698072781944437           0.0824979961113157 0.37209099429623277          1.0000   
         C         C         1.0       0.4252960184510401  0.09492145422410792           0.3752065715609266 1.0000   
         H         H         1.0       0.3824375155568106  0.10040954352038756           0.3610365685699652 1.0000   
         H         H         1.0       0.37949906534820327           0.082892390396617  0.39127925546301573          1.0000   
         H         H         1.0       0.43785703354912225           0.11517417238299665          0.38833703143240794          1.0000   
         H         H         1.0       0.4284054748035904  0.07658724644049197           0.38486067788370054          1.0000   
         C         C         1.0       0.24409453380443483           0.8580675912893844 0.4514046040727253 1.0000   
         C         C         1.0       0.21792154269072023           0.8555689274018778 0.4331163403988292 1.0000   
         H         H         1.0       0.2327279302603948  0.8361491486284897  0.46415826665892884          1.0000   
         H         H         1.0       0.2645454704723552  0.8590790151068676  0.44082378595453575          1.0000   
         H         H         1.0       0.20117282998753502           0.8611976643080668 0.4437972057172814 1.0000   
         H         H         1.0       0.19805636913935631           0.828583606854821  0.4286436861245602 1.0000   
         C         C         1.0       0.6465232341116806  0.025201479817146932         0.5271181309861717 1.0000   
         C         C         1.0       0.6678556807362809  0.01025448538883822           0.5242695437910698 1.0000   
         H         H         1.0       0.6344613836145045  0.024738785623361847         0.5451268969580051 1.0000   
         H         H         1.0       0.6650133423068829  0.05132379122090436           0.5205238682357677 1.0000   
         H         H         1.0       0.6920450977823557  0.024620078785010158         0.5347864406484921 1.0000   
         H         H         1.0       0.674396103180248   0.014542288703876638         0.5038685627542201 1.0000   
         C         C         1.0       0.6589505270292036  0.15676951829584485           0.3429838610985352 1.0000   
         C         C         1.0       0.6520651128184738  0.12208317012168446           0.34247803653666886          1.0000   
         H         H         1.0       0.6637595909867247  0.1650253960349164  0.36248582209496294          1.0000   
         H         H         1.0       0.6829832308379086  0.17280923928607428           0.3329501489300051 1.0000   
         H         H         1.0       0.6747331482393907  0.12482435469253272           0.35292209581987505          1.0000   
         H         H         1.0       0.6521879898991726  0.1121544879353038  0.3237026048152636 1.0000   
         C         C         1.0       0.6057942492769253  0.8869587422901263  0.41821627735553696          1.0000   
         C         C         1.0       0.5774849000672171  0.8492312438231044  0.4143694946459342 1.0000   
         H         H         1.0       0.6165839672724103  0.8969552100894859  0.3993058752177471 1.0000   
         H         H         1.0       0.6289295053410002  0.8910148379402278  0.42954233256675844          1.0000   
         H         H         1.0       0.5683365095750903  0.8343975176238058  0.43042490011234663          1.0000   
         H         H         1.0       0.5531027059825602  0.8451911106586014  0.40683196834856106          1.0000   
         C         C         1.0       0.41741633753887136           0.9483339783532883 0.2952287170040528 1.0000   
         C         C         1.0       0.38013844275154307           0.9174715625288548 0.29772618913865756          1.0000   
         H         H         1.0       0.4206316743003494  0.9668117717204613  0.28277756363618944          1.0000   
         H         H         1.0       0.43574237519938364           0.9426491579181296 0.28723742186015444          1.0000   
         H         H         1.0       0.36952699419811363           0.9075566324804754 0.2801055113253383 1.0000   
         H         H         1.0       0.3805610595972343  0.8973503527812253  0.3071027429890945 1.0000   
         C         C         1.0       0.39039341604289723           0.8305108431765704 0.46718169514517827          1.0000   
         C         C         1.0       0.38164931658152157           0.8045314759870296 0.488114648052287  1.0000   
         H         H         1.0       0.3790641226154033  0.8164948134899631  0.44956265324255595          1.0000   
         H         H         1.0       0.3746785460342988  0.8396536090682843  0.4711199618119547 1.0000   
         H         H         1.0       0.352562596531262   0.7898140659393335  0.489529010883286  1.0000   
         H         H         1.0       0.393982874767961   0.8166576201577712  0.5064911224169539 1.0000   
         C         C         1.0       0.46320614637637475           0.09599452091129512          0.43651493509980527          1.0000   
         C         C         1.0       0.45980113312327286           0.08603868102935319          0.4639425663817639 1.0000   
         H         H         1.0       0.4854214133076026  0.1238750408274174  0.4363971548142074 1.0000   
         H         H         1.0       0.4427076539027136  0.09738741784362381           0.42857621171056365          1.0000   
         H         H         1.0       0.47822003985699296           0.07740593889506053          0.46540105963930145          1.0000   
         H         H         1.0       0.47246642308252984           0.10772266587082191          0.4767164931764376 1.0000   
         C         C         1.0       0.6116994121920326  0.6300389365893273  0.9916861685254852 1.0000   
         C         C         1.0       0.6374100870224889  0.6645350182519931  0.9815817163354069 1.0000   
         H         H         1.0       0.3672705600549245  0.02350772336556184           0.8677361804099801 1.0000   
         H         H         1.0       0.36430698156731167           0.0579108482895172 0.8633112912786599 1.0000   
         H         H         1.0       0.644111052288939   0.6812654574259177  0.9971833365659559 1.0000   
         H         H         1.0       0.6619366435048389  0.6675294543422261  0.9764161293890372 1.0000   
         C         C         1.0       0.4243344108995785  0.676322049685159   0.9226704130794845 1.0000   
         C         C         1.0       0.4584388111344317  0.6784272356375769  0.9176852766918241 1.0000   
         H         H         1.0       0.42039716008981237           0.673784778548357  0.9423576963910327 1.0000   
         H         H         1.0       0.40312354077224744           0.6535257929985012 0.9145085556031836 1.0000   
         H         H         1.0       0.4613626411282341  0.6768484283865405  0.899250579501753  1.0000   
         H         H         1.0       0.2940918027623946  0.10980852188073342           0.02347252279872758          1.0000   
         C         C         1.0       0.44663533892639806           0.9163558030434138 0.03347272731575224          1.0000   
         C         C         1.0       0.47261755762813396           0.921952199276936  0.012812768082447912         1.0000   
         H         H         1.0       0.4226507527719252  0.8936968267297977  0.029713868693405088         1.0000   
         H         H         1.0       0.454322037106726   0.914939366036888   0.05142943010333356          1.0000   
         H         H         1.0       0.48271426459784683           0.9083469363042078 0.01809987677917091          1.0000   
         H         H         1.0       0.4947834242979706  0.9488417317947563  0.010569376882615167         1.0000   
         C         C         1.0       0.589819024699158   0.044264829515637594         0.07637010024854174          1.0000   
         C         C         1.0       0.5843318202284771  0.07189879931790832           0.08288128244966209          1.0000   
         H         H         1.0       0.6167332907098952  0.04974983426047341           0.07712472312575747          1.0000   
         H         H         1.0       0.5818837033503819  0.036951623990802984         0.05758215226743091          1.0000   
         H         H         1.0       0.6053751357812845  0.09599940618155411           0.07652191442546563          1.0000   
         H         H         1.0       0.5870533572671657  0.07273942298798652           0.10370895897122923          1.0000   
         C         C         1.0       0.5296259491295794  0.5760420388840972  0.13131407061050776          1.0000   
         C         C         1.0       0.09148642427570994           0.6870640157998817 0.10223315417392573          1.0000   
         H         H         1.0       0.5295403866883124  0.5546325554000964  0.13862426554093954          1.0000   
         H         H         1.0       0.5150057179784364  0.5634559123869086  0.11420124727332237          1.0000   
         H         H         1.0       0.09924456377159935           0.6845005379419823 0.12076468056569481          1.0000   
         H         H         1.0       0.10849160227393344           0.6845880586984887 0.09058444732713467          1.0000   
         C         C         1.0       0.2454222316829032  0.8584190069518809  0.9436161604589564 1.0000   
         C         C         1.0       0.2467767065255406  0.8275063233747193  0.9393083795082083 1.0000   
         H         H         1.0       0.21990703211968382           0.85357899408445   0.9369329745203111 1.0000   
         H         H         1.0       0.2659931430874077  0.8763174225430246  0.9304230727706261 1.0000   
         H         H         1.0       0.23352450007537354           0.8156693835693618 0.9222831605414594 1.0000   
         H         H         1.0       0.23144893525139543           0.8101304191172944 0.9552369180257707 1.0000   
         C         C         1.0       0.43201963330270665           0.6372939155173439 0.07050408256570173          1.0000   
         C         C         1.0       0.4533898868689504  0.6749433187654725  0.06501141633703234          1.0000   
         H         H         1.0       0.4352609975593088  0.6280722849375281  0.08803229104316723          1.0000   
         H         H         1.0       0.40441932314442797           0.6277817926670867 0.07031530985660228          1.0000   
         H         H         1.0       0.4439312430845081  0.6868400559097398  0.07595849954589262          1.0000   
         H         H         1.0       0.44556078375194363           0.6776181967919579 0.046997396057023355         1.0000   
         C         C         1.0       0.32123333718946645           0.05056723763504278          0.06107719132931044          1.0000   
         C         C         1.0       0.3380973350180678  0.049378912308445155         0.08638078641968727          1.0000   
         H         H         1.0       0.343591971407146   0.0666972422836789  0.04893848314361393          1.0000   
         H         H         1.0       0.30812952793290926           0.0635206309862173 0.06203999414472583          1.0000   
         H         H         1.0       0.31711283966103565           0.028517873257111637         0.09741236031377842          1.0000   
         H         H         1.0       0.3483932663085736  0.07231835893127525           0.0981136364395212 1.0000   
         C         C         1.0       0.12624334041601007           0.9042669845316266 0.18243904562941446          1.0000   
         C         C         1.0       0.14682297564915953           0.9169439790325531 0.15708748271783968          1.0000   
         H         H         1.0       0.12483949764095013           0.8827527387409514 0.1898724041620331 1.0000   
         H         H         1.0       0.14261445037376155           0.9260518140618599 0.19475238027690994          1.0000   
         H         H         1.0       0.17471941745754477           0.9354765233295201 0.15959527521609604          1.0000   
         H         H         1.0       0.13972668031224794           0.9316033391185375 0.14852051569208852          1.0000   
         C         C         1.0       0.35835877196554045           0.9067540312375562 0.09986390662462442          1.0000   
         C         C         1.0       0.3556803368364854  0.8742095877735832  0.09858858276031085          1.0000   
         H         H         1.0       0.3547320823697301  0.9094054011451167  0.1201229982963752 1.0000   
         H         H         1.0       0.38446216094949687           0.9274540577800867 0.09616178800000608          1.0000   
         H         H         1.0       0.35346748047293863           0.8669175164300591 0.07805026001734983          1.0000   
         H         H         1.0       0.3303078481128886  0.8539070514621221  0.10681368295394406          1.0000   
         C         C         1.0       0.5337098986764612  0.28777521516074295           0.09781667398174812          1.0000   
         C         C         1.0       0.524821818967416   0.26342761938187986           0.11551300513027109          1.0000   
         C         C         1.0       0.5307305946193742  0.23982874737189958           0.10957717818337283          1.0000   
         C         C         1.0       0.547818530161369   0.24178711629707947           0.08818208426098861          1.0000   
         C         C         1.0       0.5603389135227944  0.26882334406519465           0.0733264773143667 1.0000   
         C         C         1.0       0.5524648859212666  0.2909381410206329  0.07759559406126537          1.0000   
         H         H         1.0       0.5104198983853759  0.2610914856226726  0.13011643669917217          1.0000   
         H         H         1.0       0.526028216898067   0.22223027437997167           0.12416379027546069          1.0000   
         H         H         1.0       0.5748870891893325  0.27202518802985837           0.057206375278730626         1.0000   
         H         H         1.0       0.5593437144800201  0.30999311502350135           0.06539174110501844          1.0000   
         C         C         1.0       0.961187823623151   0.2940357070488672  0.11140691962454374          1.0000   
         C         C         1.0       0.5434266526577989  0.20601168290354915           0.05257309886393058          1.0000   
         C         C         1.0       0.5649925120714671  0.20159237390768284           0.037507329139125245         1.0000   
         C         C         1.0       0.9599998621556529  0.29561411748281774           0.060653632162498416         1.0000   
         C         C         1.0       0.9370989730631879  0.29682294842412427           0.07424342720947696          1.0000   
         C         C         1.0       0.9388842200497205  0.2990835848421458  0.09907085274354199          1.0000   
         C         C         1.0       0.5537008954080768  0.21399762999196265           0.08088490881922827          1.0000   
         C         C         1.0       0.5286352778884941  0.17798859905770287           0.09046728192587228          1.0000   
         C         C         1.0       0.5394339489056711  0.15701995511735317           0.09361663105977415          1.0000   
         C         C         1.0       0.5223587777619868  0.12965679855650447           0.10919035398061779          1.0000   
         C         C         1.0       0.49329809572982913           0.12259678196502985          0.1201517947821604 1.0000   
         C         C         1.0       0.477118702290401   0.1372466870519192  0.11222900903084648          1.0000   
         C         C         1.0       0.49641265258214223           0.16545306900441134          0.09877497296564301          1.0000   
         C         C         1.0       0.6190443731576618  0.25324047064215294           0.07170615363878952          1.0000   
         C         C         1.0       0.6539079236249616  0.2699532132684608  0.07893232440843723          1.0000   
         C         C         1.0       0.6635479783956035  0.26096169968206345           0.10029501525493623          1.0000   
         C         C         1.0       0.6381291991880952  0.23675244660596592           0.11462665664923088          1.0000   
         C         C         1.0       0.6043419349471935  0.22453968555677967           0.1099460837305952 1.0000   
         C         C         1.0       0.5938619336134946  0.23085259642950653           0.08813882833589881          1.0000   
         C         C         1.0       0.7048601395641283  0.2797941890434016  0.10419437359536121          1.0000   
         C         C         1.0       0.7194077976527647  0.20740032654020457           0.07239993107495057          1.0000   
         C         C         1.0       0.7226514286456129  0.23267185017024872           0.057212300001675764         1.0000   
         C         C         1.0       0.7131741257426294  0.25238070056947115           0.06708403776725946          1.0000   
         C         C         1.0       0.7102467677900581  0.25413718210141123           0.0913246436776225 1.0000   
         C         C         1.0       0.7106208199058808  0.23121943968214267           0.10613880140808729          1.0000   
         C         C         1.0       0.7151214138679456  0.2073782521537562  0.09685892874865654          1.0000   
         C         C         1.0       0.7213455639439301  0.2870194151642183  0.13130601031253053          1.0000   
         C         C         1.0       0.7064403844698409  0.2875923757978096  0.15297773521998903          1.0000   
         C         C         1.0       0.7238667458831721  0.2934566285424125  0.17503231272224376          1.0000   
         C         C         1.0       0.7569076194231297  0.30062218774638483           0.17632631662873877          1.0000   
         C         C         1.0       0.7728834121101218  0.3003411356051164  0.15495907287151334          1.0000   
         C         C         1.0       0.7552471769106592  0.29628054184788266           0.13379344494615553          1.0000   
         C         C         1.0       0.751956766799929   0.3304852598263919  0.077500484571986  1.0000   
         C         C         1.0       0.765722725296321   0.36191851764709276           0.06930512153806512          1.0000   
         C         C         1.0       0.7530663030962278  0.37994470361110544           0.07696610402417337          1.0000   
         C         C         1.0       0.7283783772939131  0.36803387599693344           0.09472369414068837          1.0000   
         C         C         1.0       0.7131773853763211  0.3368279149046459  0.10217057891741521          1.0000   
         C         C         1.0       0.7245277107220739  0.31708690399850104           0.09432972788868721          1.0000   
         H         H         1.0       0.9592631280828555  0.2901830432691901  0.13138949737037176          1.0000   
         H         H         1.0       0.5848811064632684  0.1984730731892538  0.045480813963868494         1.0000   
         H         H         1.0       0.592135681541896   0.21480993286952124           0.004207375128552071         1.0000   
         H         H         1.0       0.9237531678298065  0.3059737764543098  0.10863255252666626          1.0000   
         H         H         1.0       0.5631624288742457  0.16309231713529387           0.08430349717150087          1.0000   
         H         H         1.0       0.5343233647849598  0.11589988955798167           0.11149155383558619          1.0000   
         H         H         1.0       0.9361140259535734  0.21975503511568792           0.18420006827155577          1.0000   
         H         H         1.0       0.9834361077863516  0.2675794611671406  0.16135398374446877          1.0000   
         H         H         1.0       0.6135062737013601  0.2601147394495279  0.05463320771249891          1.0000   
         H         H         1.0       0.6701510433025559  0.28356045375859446           0.06515761106729356          1.0000   
         H         H         1.0       0.6458443187879244  0.22658624911242145           0.12860593012703714          1.0000   
         H         H         1.0       0.5856149575628818  0.20860355963463437           0.12493213031800691          1.0000   
         H         H         1.0       0.725039899355883   0.23163804122952175           0.0368963607784798 1.0000   
         H         H         1.0       0.7116953465649352  0.2695867783361821  0.05551527333885886          1.0000   
         H         H         1.0       0.7062262985478663  0.22969128712322467           0.12546554236635998          1.0000   
         H         H         1.0       0.7105611408526424  0.1874715790641949  0.10935734024351618          1.0000   
         H         H         1.0       0.681805527054507   0.2841211291122804  0.1533988689481516 1.0000   
         H         H         1.0       0.7118993189290624  0.2948632595081731  0.19202652140635584          1.0000   
         H         H         1.0       0.8006571052898205  0.30961303671316315           0.15520515087297682          1.0000   
         H         H         1.0       0.770093424997732   0.30135233907929665           0.11684498427857193          1.0000   
         H         H         1.0       0.7612771416298741  0.31628375376694323           0.07012012387867017          1.0000   
         H         H         1.0       0.7884310998276861  0.3741405792299634  0.05761881639690736          1.0000   
         H         H         1.0       0.7185074651248218  0.3831863610730252  0.09934320520575901          1.0000   
         H         H         1.0       0.6911872268609928  0.32620067285531656           0.11529168382846589          1.0000   
         C         C         1.0       0.8822198183554829  0.11091123176242774           0.9639877478660702 1.0000   
         C         C         1.0       0.011028533148432329          0.6737734983837582 0.9556958588986587 1.0000   
         C         C         1.0       0.020596283312611874          0.6570280782670549 0.9697585236364311 1.0000   
         C         C         1.0       0.9947159930099727  0.6253778677724104  0.9786406911913067 1.0000   
         C         C         1.0       0.8746364127612445  0.14071994648369032           0.9948822190444728 1.0000   
         C         C         1.0       0.8607936022013066  0.11262949690719927           0.9808558870631785 1.0000   
         H         H         1.0       0.028878531154761022          0.7002791905082202 0.9508106349808926 1.0000   
         H         H         1.0       0.044453361428661076          0.6722655532607548 0.9792524581997769 1.0000   
         H         H         1.0       0.8553753338955881  0.13921981239570813           0.006718226869061317         1.0000   
         H         H         1.0       0.8352409554836114  0.09216811682196036           0.9811465480445108 1.0000   
         C         C         1.0       0.8879106896491187  0.21182996351336308           0.01256968626848498          1.0000   
         C         C         1.0       0.9000232845133871  0.19856996128660775           0.029486773698727653         1.0000   
         C         C         1.0       0.8981229409753084  0.2019903809077873  0.05334960335882455          1.0000   
         C         C         1.0       0.8832655231288751  0.2165804747583307  0.06163810741742659          1.0000   
         C         C         1.0       0.8753203143021717  0.23312638510524156           0.04738559548797405          1.0000   
         C         C         1.0       0.8750987264359512  0.2291484876110376  0.02219107907696949          1.0000   
         C         C         1.0       0.003322591541481845          0.6139742325286356 0.00429310017251594          1.0000   
         C         C         1.0       0.04259380802169033           0.6227588783750057 0.006169438706964847         1.0000   
         C         C         1.0       0.06134256281689776           0.6259669227926895 0.9856905752182885 1.0000   
         C         C         1.0       0.09691757284432967           0.640813961239267  0.9869975245765295 1.0000   
         C         C         1.0       0.02412568536388715           0.28203302486490667          0.9943071385659992 1.0000   
         C         C         1.0       0.9940782079768766  0.2676340597508756  0.9802249671788348 1.0000   
         C         C         1.0       0.9623767754247791  0.24059093493977995           0.9883391364896097 1.0000   
         C         C         1.0       0.9695404773335649  0.5605679978155879  0.030085082355824744         1.0000   
         C         C         1.0       0.9513354710004358  0.5262580690758211  0.03249171959725472          1.0000   
         C         C         1.0       0.9474775295590476  0.5064106559851766  0.013078706334449963         1.0000   
         C         C         1.0       0.9625699715005415  0.5218877410136968  0.9914701616705541 1.0000   
         C         C         1.0       0.9827840237573052  0.5560836729927315  0.9897034726003651 1.0000   
         C         C         1.0       0.9838772086343937  0.5755148850425506  0.008446406021037856         1.0000   
         C         C         1.0       0.919532074725663   0.467906229067221   0.015598070301070743         1.0000   
         C         C         1.0       0.9853052196769411  0.4385641260302196  0.044124849781307374         1.0000   
         C         C         1.0       0.9704739426182862  0.44843999618798097           0.05975071106220953          1.0000   
         C         C         1.0       0.9506336032324401  0.4582034019167852  0.050865351339737463         1.0000   
         C         C         1.0       0.9472651828163513  0.4615857781924674  0.026329017977942293         1.0000   
         C         C         1.0       0.9667459045827151  0.4558013914716404  0.011026200300982447         1.0000   
         C         C         1.0       0.9844196945309591  0.4437011766051718  0.0191223418422537 1.0000   
         C         C         1.0       0.8974944179817449  0.44468056752870005           0.9930245239035728 1.0000   
         C         C         1.0       0.8879393304837121  0.45481386239780724           0.9733592254304942 1.0000   
         C         C         1.0       0.8721307831922633  0.4348521741681764  0.952733686110703  1.0000   
         C         C         1.0       0.8625481927738172  0.4033202654506734  0.9537953268786488 1.0000   
         C         C         1.0       0.8686231293466181  0.3906133579709538  0.9745819886235076 1.0000   
         C         C         1.0       0.8840723233387382  0.41087602380997507           0.9939180739310912 1.0000   
         C         C         1.0       0.8739131766274734  0.43797533317395754           0.0507266045207746 1.0000   
         C         C         1.0       0.8496872011156668  0.43522128554791617           0.06588590566043973          1.0000   
         C         C         1.0       0.835539098355      0.45225993453288427           0.06179376666504255          1.0000   
         C         C         1.0       0.8463427867794898  0.47394752459690015           0.04251426373753131          1.0000   
         C         C         1.0       0.8723277644412052  0.47886509693894985           0.028205016424390328         1.0000   
         C         C         1.0       0.8872462250559106  0.4611416725991157  0.031667393430676816         1.0000   
         H         H         1.0       0.8875862703854107  0.20895465659759835           0.9929881916520685 1.0000   
         H         H         1.0       0.04682780080591442           0.6752627631321284 0.02791031798382093          1.0000   
         H         H         1.0       0.8849954560486573  0.22296231024878957           0.08102573946760305          1.0000   
         H         H         1.0       0.8691809167064339  0.2413846680437008  0.006775860096888131         1.0000   
         H         H         1.0       0.049390777762061244          0.623607269224741  0.968226425829009  1.0000   
         H         H         1.0       0.1090812471628344  0.6437318274304709  0.9691033129498705 1.0000   
         H         H         1.0       0.9956380425742949  0.27602337923279446           0.9607221493629324 1.0000   
         H         H         1.0       0.9412366153392956  0.23131372378024972           0.9769156761281131 1.0000   
         H         H         1.0       0.9683663242564761  0.5739942677325874  0.045479158996241775         1.0000   
         H         H         1.0       0.9376062702004174  0.5173762204035733  0.049443827279048946         1.0000   
         H         H         1.0       0.958675785694958   0.50827728863098    0.9747776866099892 1.0000   
         H         H         1.0       0.9923034230622216  0.566475437802286   0.9711925762738801 1.0000   
         H         H         1.0       0.9731992026152044  0.44843446575295104           0.07912750591731599          1.0000   
         H         H         1.0       0.9407039307143387  0.4677839130606527  0.0631451768858311 1.0000   
         H         H         1.0       0.9634623252927357  0.4591063485045487  0.9919462726696948 1.0000   
         H         H         1.0       0.9968698008707506  0.43795145005531244           0.004933450423449948         1.0000   
         H         H         1.0       0.890392097885812   0.4774947961229415  0.971773881302461  1.0000   
         H         H         1.0       0.8660534338368368  0.4423981075766908  0.9368126313606846 1.0000   
         H         H         1.0       0.8599993998368666  0.3649245275210202  0.9780318578683276 1.0000   
         H         H         1.0       0.8895468856093863  0.4004205139106502  0.009489496630164185         1.0000   
         H         H         1.0       0.8842698272301702  0.42466413721393265           0.055261428479784325         1.0000   
         H         H         1.0       0.8431584126119235  0.42085150428404583           0.08271973078801786          1.0000   
         H         H         1.0       0.8379418854005432  0.4899101432363361  0.03827489163602271          1.0000   
         H         H         1.0       0.8832112460718129  0.4985359401285555  0.013628086600286249         1.0000   
         C         C         1.0       0.838919629488275   0.22526627111013572           0.38573469208498884          1.0000   
         C         C         1.0       0.8330453480763761  0.24228369217481224           0.4025916848244617 1.0000   
         C         C         1.0       0.8532334604961959  0.2768270231066266  0.40290448020018954          1.0000   
         C         C         1.0       0.8834244454557217  0.29578349382124686           0.3881163712054743 1.0000   
         C         C         1.0       0.8899878883015198  0.27773143777919174           0.37256093093725234          1.0000   
         C         C         1.0       0.8695376933850848  0.24330882110928115           0.37181660310582054          1.0000   
         H         H         1.0       0.808973840887193   0.22992448672037794           0.41288911975085796          1.0000   
         H         H         1.0       0.8458291163163071  0.2880861967122985  0.41663557337719337          1.0000   
         H         H         1.0       0.9101650933936324  0.29117926570516206           0.3595703945761414 1.0000   
         H         H         1.0       0.8749895190468133  0.2318116254257297  0.3571575755638132 1.0000   
         C         C         1.0       0.9653890703966145  0.34140344110893767           0.3870618970062032 1.0000   
         C         C         1.0       0.9455210186017251  0.35261181632369915           0.3787892471807504 1.0000   
         C         C         1.0       0.9624161641708491  0.38191026493248353           0.3664926678832641 1.0000   
         C         C         1.0       0.9969424748716138  0.39821180958721303           0.36124403600397226          1.0000   
         C         C         1.0       0.016025254913377918          0.387114878822987  0.3688349997500669 1.0000   
         C         C         1.0       0.00045501575496031954        0.35892875965701426          0.3827179939120445 1.0000   
         C         C         1.0       0.9053156427930998  0.33533565133017434           0.38735773348164476          1.0000   
         C         C         1.0       0.9131130718734516  0.3535112504227773  0.4133164996604016 1.0000   
         C         C         1.0       0.9254867156115182  0.38699917971872516           0.4147695052616286 1.0000   
         C         C         1.0       0.9336179962456427  0.4023607927744128  0.43663501030663604          1.0000   
         C         C         1.0       0.9306704944099706  0.38713240573401586           0.45826051630067816          1.0000   
         C         C         1.0       0.9198175837692746  0.35385645923972014           0.4576876052822736 1.0000   
         C         C         1.0       0.9123855990929868  0.33837906780619526           0.4354050741683051 1.0000   
         C         C         1.0       0.8856210342179949  0.3368165166176812  0.3441513912495907 1.0000   
         C         C         1.0       0.8697448056528181  0.34540982516329233           0.32620057024688104          1.0000   
         C         C         1.0       0.8504327530910626  0.3569787407186351  0.33439084641073313          1.0000   
         C         C         1.0       0.8504337665908572  0.36237828371882547           0.35965158804556985          1.0000   
         C         C         1.0       0.863336130081835   0.35205400989733093           0.3768594562558989 1.0000   
         C         C         1.0       0.883151760570561   0.3406558979474565  0.369481897662474  1.0000   
         C         C         1.0       0.8337966243726712  0.36895170370911073           0.3147492406402941 1.0000   
         C         C         1.0       0.9294754445340095  0.454787350322626   0.28221532464284194          1.0000   
         C         C         1.0       0.9098836588513735  0.4272709926577265  0.2676052243046851 1.0000   
         C         C         1.0       0.8777209534880849  0.4008315125946662  0.27603569260375077          1.0000   
         C         C         1.0       0.8684416780880374  0.399238124860807   0.3004663826818677 1.0000   
         C         C         1.0       0.8939609048352849  0.4264035964319074  0.31518913723218595          1.0000   
         C         C         1.0       0.9225742756082548  0.45374461451782466           0.3062046867403512 1.0000   
         C         C         1.0       0.813442035435072   0.3843955115751846  0.3270155319297646 1.0000   
         C         C         1.0       0.7856318970733632  0.3649699127930591  0.34289994680762387          1.0000   
         C         C         1.0       0.7714853286117925  0.37963864601754027           0.35329152466559177          1.0000   
         C         C         1.0       0.7801327908829615  0.40986041816523344           0.3461521172173249 1.0000   
         C         C         1.0       0.802887336330418   0.4265283518332472  0.3287628920584303 1.0000   
         C         C         1.0       0.8205587801518138  0.4150365615790916  0.3187438144958811 1.0000   
         C         C         1.0       0.7892578161026134  0.3529030032196358  0.27816663732821206          1.0000   
         C         C         1.0       0.758891218865405   0.33066085138741624           0.266391446438295  1.0000   
         C         C         1.0       0.7388828268642141  0.2988741442043453  0.2745269623639213 1.0000   
         C         C         1.0       0.7514874730298592  0.28840427667585444           0.292221449458721  1.0000   
         C         C         1.0       0.7830951427413143  0.3105651764135584  0.30369625077409196          1.0000   
         C         C         1.0       0.8033267798551362  0.34308757372829746           0.2964702633557397 1.0000   
         H         H         1.0       0.9535219805960616  0.31918933686313505           0.39850868570607156          1.0000   
         H         H         1.0       0.9474584942460113  0.39025753783162986           0.35968559183594107          1.0000   
         H         H         1.0       0.007105826791779402          0.42077986293257075          0.3517583146972796 1.0000   
         H         H         1.0       0.013737991485883061          0.34761110513544524          0.3874433833433543 1.0000   
         H         H         1.0       0.9240768192190667  0.40084564859953176           0.3984487198449373 1.0000   
         H         H         1.0       0.9380906606252242  0.42615751173794264           0.43639172796653986          1.0000   
         H         H         1.0       0.917876054260882   0.33946918535061654           0.4724167203722731 1.0000   
         H         H         1.0       0.9049374888970902  0.31374327243761535           0.4348976506168043 1.0000   
         H         H         1.0       0.8989432349305462  0.32679461417070316           0.3375001773158822 1.0000   
         H         H         1.0       0.874136301646437   0.34715540920777765           0.30708305308674805          1.0000   
         H         H         1.0       0.8388015832480582  0.37420820987430986           0.36809419067050114          1.0000   
         H         H         1.0       0.8588424034840352  0.35309210562619037           0.3962448146877118 1.0000   
         H         H         1.0       0.9165303167855059  0.42717085715985825           0.247888156683063  1.0000   
         H         H         1.0       0.8618184418800401  0.3821834123807864  0.2635918837492539 1.0000   
         H         H         1.0       0.8881602768741261  0.4249060322936851  0.33542706448945736          1.0000   
         H         H         1.0       0.9394219146076868  0.4749567065629678  0.3184708042867107 1.0000   
         H         H         1.0       0.7781891032121081  0.3408476718525762  0.34893917770016186          1.0000   
         H         H         1.0       0.7484836871106715  0.3650315270626023  0.3655687851642169 1.0000   
         H         H         1.0       0.8046536627381624  0.4486815870889162  0.3213341301852351 1.0000   
         H         H         1.0       0.836375162967629   0.4265596406995121  0.3033658258732144 1.0000   
         H         H         1.0       0.8040506919758211  0.37734141957418676           0.2718410382163277 1.0000   
         H         H         1.0       0.751328444977996   0.34318088667405555           0.25408063159329136          1.0000   
         H         H         1.0       0.734703682588916   0.26178874281116693           0.2991453368619732 1.0000   
         H         H         1.0       0.7894395353875652  0.302968738250112   0.320989796090008  1.0000   
         C         C         1.0       0.6201734941732165  0.36148149937607393           0.16124464758210735          1.0000   
         C         C         1.0       0.6438687802878257  0.39499195504234147           0.1624597311126567 1.0000   
         C         C         1.0       0.6397697208491958  0.4137463563068346  0.17907073807353333          1.0000   
         C         C         1.0       0.613510275198961   0.39813689414217796           0.19547178094698672          1.0000   
         C         C         1.0       0.5886348966488396  0.3631536974904291  0.19487315043461037          1.0000   
         C         C         1.0       0.5922539456337353  0.34579587555121166           0.1764835141284793 1.0000   
         H         H         1.0       0.6662660932677995  0.4054846406289429  0.15005045285327331          1.0000   
         H         H         1.0       0.6603323752139009  0.43924470302625673           0.17935680021472394          1.0000   
         H         H         1.0       0.5706333345541232  0.34938424447471494           0.20884206693621327          1.0000   
         H         H         1.0       0.577092878367783   0.31919180290901944           0.1766467293968229 1.0000   
         C         C         1.0       0.12326904096932223           0.4210603471637442 0.2994598607611848 1.0000   
         C         C         1.0       0.56953372069374    0.39955354244104074           0.23196199239420226          1.0000   
         C         C         1.0       0.570932532238327   0.4126278018220609  0.25430906189231545          1.0000   
         C         C         1.0       0.13448483115816012           0.4606538002775493 0.3383125532812488 1.0000   
         C         C         1.0       0.10104966629408763           0.4358844221897679 0.3312552605186741 1.0000   
         C         C         1.0       0.09592170773343112           0.4169610107636124 0.3120329980809316 1.0000   
         C         C         1.0       0.6054040944748983  0.4173480019744744  0.21657505137880742          1.0000   
         C         C         1.0       0.6088596613983255  0.44836178828535994           0.20436477521830682          1.0000   
         C         C         1.0       0.6144505983008185  0.4745468233907502  0.21814367025673764          1.0000   
         C         C         1.0       0.6127387284989584  0.498949605865071   0.20872877102345397          1.0000   
         C         C         1.0       0.6010607387387072  0.4968627099838482  0.18555788709226143          1.0000   
         C         C         1.0       0.5941599830106636  0.4708824564002942  0.17079508828846404          1.0000   
         C         C         1.0       0.5999295354362514  0.4486567019565331  0.17964837512960122          1.0000   
         C         C         1.0       0.6305568737328073  0.40139111160711644           0.25103709537230817          1.0000   
         C         C         1.0       0.6575670610117987  0.4011834257040866  0.26166434714977066          1.0000   
         C         C         1.0       0.6909475500886961  0.4223775484925639  0.25382269045841555          1.0000   
         C         C         1.0       0.6982590896303982  0.4491059155310939  0.24045890360384317          1.0000   
         C         C         1.0       0.6710502322801608  0.45075420455295456           0.23080626602606286          1.0000   
         C         C         1.0       0.6376470547417027  0.42591086160236635           0.23525577802043438          1.0000   
         C         C         1.0       0.7161897215130626  0.41137798291148964           0.25904483095776926          1.0000   
         C         C         1.0       0.7735688816800999  0.49452413402043394           0.3076389030575478 1.0000   
         C         C         1.0       0.7430889202312169  0.46656527096665035           0.3144413901580766 1.0000   
         C         C         1.0       0.7282286990762358  0.4400365172534864  0.2989787102408778 1.0000   
         C         C         1.0       0.7406321080212582  0.44064632702537404           0.2766791759536588 1.0000   
         C         C         1.0       0.7714116433553097  0.47011022372146943           0.2697621433747255 1.0000   
         C         C         1.0       0.7890785077416324  0.4973183737823186  0.28531881643814055          1.0000   
         C         C         1.0       0.7345309330868629  0.4091485097361705  0.2353868332671125 1.0000   
         C         C         1.0       0.7218634675926484  0.4071527412351392  0.21207586862627675          1.0000   
         C         C         1.0       0.7339109609868139  0.40009547512447613           0.1921174926404767 1.0000   
         C         C         1.0       0.7617286944320132  0.39793953114836195           0.19587526413916378          1.0000   
         C         C         1.0       0.7772307238680776  0.4034360158167155  0.2177838004211788 1.0000   
         C         C         1.0       0.7646225725329905  0.4098657641963964  0.23743795014700414          1.0000   
         C         C         1.0       0.6733660978916605  0.34724578953226715           0.2564142157330717 1.0000   
         C         C         1.0       0.6649882462044768  0.3167507170083708  0.26165733053121226          1.0000   
         C         C         1.0       0.6774561376815827  0.3099763557359592  0.28123876791878183          1.0000   
         C         C         1.0       0.700074098084356   0.3330538487819237  0.2964178325002334 1.0000   
         C         C         1.0       0.7137879579293285  0.36614318102604004           0.2894900788829882 1.0000   
         C         C         1.0       0.7001549229562662  0.37516044575149377           0.27003813113812836          1.0000   
         H         H         1.0       0.11457523060624375           0.4052417725795173 0.28342294594967854          1.0000   
         H         H         1.0       0.593178369233138   0.4360144588011792  0.2604092822460513 1.0000   
         H         H         1.0       0.546400420822219   0.4111600095968674  0.2864292751878692 1.0000   
         H         H         1.0       0.06931242256921832           0.39737413160946455          0.3067898747981124 1.0000   
         H         H         1.0       0.6223533544112243  0.4747205290509653  0.23606309227120953          1.0000   
         H         H         1.0       0.6146156217938038  0.5164365100269344  0.22155020747857174          1.0000   
         H         H         1.0       0.5833123609400327  0.46639298249567296           0.15205110888473544          1.0000   
         H         H         1.0       0.596695815551119   0.43031060012646494           0.16654561863052056          1.0000   
         H         H         1.0       0.603761089797709   0.380507559841549   0.25448509930672364          1.0000   
         H         H         1.0       0.6483208677774553  0.37952639393788085           0.27402028475344986          1.0000   
         H         H         1.0       0.7249980420004528  0.46878917642931783           0.23514816833615804          1.0000   
         H         H         1.0       0.6749393984075411  0.4704375600832713  0.21904401238805737          1.0000   
         H         H         1.0       0.732867838259929   0.46693866900326103           0.33237523201268787          1.0000   
         H         H         1.0       0.7047171558189131  0.4179243819719742  0.30451918218648344          1.0000   
         H         H         1.0       0.7824485679788118  0.4696064551345434  0.25209159924688956          1.0000   
         H         H         1.0       0.8147399990453742  0.5197237568152053  0.27871008103421957          1.0000   
         H         H         1.0       0.7002989676687458  0.4084884759236205  0.2092636317906503 1.0000   
         H         H         1.0       0.7200178190564678  0.39286327075062766           0.17479629376782288          1.0000   
         H         H         1.0       0.7998597425343921  0.40381392550832224           0.21934418217037405          1.0000   
         H         H         1.0       0.7762661610985031  0.412378316518593   0.2546709124259765 1.0000   
         H         H         1.0       0.6658463732432343  0.3511055917289733  0.23817794988643598          1.0000   
         H         H         1.0       0.6483581847153814  0.29836878680100876           0.24931346327661208          1.0000   
         H         H         1.0       0.7093931554880124  0.3252834480096288  0.31173470623901345          1.0000   
         H         H         1.0       0.7337367660500267  0.38452158269912584           0.3005461232805992 1.0000   
         C         C         1.0       0.8225234247675557  0.44737132525309453           0.15905829402385827          1.0000   
         C         C         1.0       0.8544366315935685  0.4532063872576671  0.156645323409483  1.0000   
         C         C         1.0       0.8849401599481778  0.4835730363769437  0.16210888896327805          1.0000   
         C         C         1.0       0.8830775328913042  0.5096359737291026  0.17106686184278633          1.0000   
         C         C         1.0       0.8506469758741833  0.5017407624823096  0.17603423310761446          1.0000   
         C         C         1.0       0.821116534645579   0.471697576955094   0.16963812811437717          1.0000   
         H         H         1.0       0.8563484233162056  0.4347764265986705  0.14747103513874738          1.0000   
         H         H         1.0       0.910167097948056   0.4874219187770764  0.16232088107072784          1.0000   
         H         H         1.0       0.8478072211347367  0.5182203655687977  0.18743001546591434          1.0000   
         H         H         1.0       0.7950863605066546  0.4662495007666334  0.17521403254406134          1.0000   
         C         C         1.0       0.9357188123590412  0.5462927886248974  0.13143225448119578          1.0000   
         C         C         1.0       0.9462413753326041  0.5561072016119679  0.15567035750105382          1.0000   
         C         C         1.0       0.9818817057577474  0.5766152447706334  0.16042733549056465          1.0000   
         C         C         1.0       0.004879951402797511          0.5806822208975906 0.1429429286745916 1.0000   
         C         C         1.0       0.9931435455615736  0.565951218951555   0.12015231749737507          1.0000   
         C         C         1.0       0.9585614664331239  0.5507837724042004  0.11467502903686914          1.0000   
         C         C         1.0       0.9179380047932636  0.5432503704827341  0.17798460407437264          1.0000   
         C         C         1.0       0.9285212933343071  0.5320678478920677  0.20175746999671187          1.0000   
         C         C         1.0       0.9167690519908032  0.5349964002756789  0.22453991686856262          1.0000   
         C         C         1.0       0.9247955471365925  0.5248771222339258  0.2457112638575451 1.0000   
         C         C         1.0       0.9508740875311358  0.5205107011003023  0.2449640426033244 1.0000   
         C         C         1.0       0.9645332446092013  0.5185070373467864  0.22296111248226416          1.0000   
         C         C         1.0       0.9511027830938698  0.5229563712795634  0.20164986735348925          1.0000   
         C         C         1.0       0.9495182845724164  0.13345092734116606           0.29439427853646377          1.0000   
         C         C         1.0       0.9564223684614074  0.163139805763456   0.28995768730650173          1.0000   
         C         C         1.0       0.9822364074826104  0.18456259207178666           0.2741934032388117 1.0000   
         C         C         1.0       0.007253657589121332          0.1789258112399261 0.2678264853103593 1.0000   
         C         C         1.0       0.0008782178548043529         0.14853251129587403          0.27357068951475   1.0000   
         C         C         1.0       0.9693478621900972  0.12333425372958037           0.283996715705772  1.0000   
         C         C         1.0       0.9809613936391278  0.21279693350412643           0.2610049172103138 1.0000   
         C         C         1.0       0.9155222423526632  0.1516745255148477  0.19963651841384825          1.0000   
         C         C         1.0       0.9017440839718521  0.15354184295584813           0.22036798861292944          1.0000   
         C         C         1.0       0.9213244488827268  0.1719698423359228  0.23886945590112557          1.0000   
         C         C         1.0       0.9583260583472238  0.19008160813287267           0.23771009955555628          1.0000   
         C         C         1.0       0.9721108104588048  0.1843424722366133  0.21740092951534348          1.0000   
         C         C         1.0       0.9500557685682328  0.16489202841583375           0.1983288397684104 1.0000   
         C         C         1.0       0.01592756320450417           0.24504244688263618          0.25400531608238514          1.0000   
         C         C         1.0       0.04375219683242704           0.25831760769252365          0.2698998599101279 1.0000   
         C         C         1.0       0.07620675874147342           0.28165446710928865          0.2616064936716445 1.0000   
         C         C         1.0       0.08024715805238802           0.294125859350217  0.23827417940819276          1.0000   
         C         C         1.0       0.05211695706261943           0.28400350771499333          0.22388034732727122          1.0000   
         C         C         1.0       0.019671747236481574          0.25835816672933226          0.23028697905611464          1.0000   
         C         C         1.0       0.947386773909117   0.24171929663622166           0.265579881867186  1.0000   
         C         C         1.0       0.938587190497199   0.25971799035179116           0.2787352922196366 1.0000   
         C         C         1.0       0.9514247444400384  0.2696617928533734  0.3026874352652644 1.0000   
         C         C         1.0       0.9705822506152338  0.25925821250242237           0.31400819000619773          1.0000   
         C         C         1.0       0.9734115846302848  0.2369450936161122  0.3018125438611298 1.0000   
         C         C         1.0       0.9649565531045209  0.22894450558882884           0.2768488217210304 1.0000   
         H         H         1.0       0.9079727523322264  0.5310245717977023  0.1261064918954553 1.0000   
         H         H         1.0       0.9930312528302225  0.5853170233553325  0.17886286057551828          1.0000   
         H         H         1.0       0.02982108408599249           0.5886204639505218 0.14938397640106515          1.0000   
         H         H         1.0       0.9465237784360147  0.5360194790790528  0.0975807444701658 1.0000   
         H         H         1.0       0.8996889938713714  0.5429787564623436  0.22611557492407752          1.0000   
         H         H         1.0       0.9175705521261512  0.5289247254339143  0.26330654363257544          1.0000   
         H         H         1.0       0.9824314049601195  0.5110471529180067  0.2218329684707377 1.0000   
         H         H         1.0       0.9593609897388549  0.5183948009821855  0.1844079301230536 1.0000   
         H         H         1.0       0.8813860234454893  0.5610273398389314  0.14996739557859376          1.0000   
         H         H         1.0       0.9359177716352173  0.1646062638325968  0.2964741403096884 1.0000   
         H         H         1.0       0.028942555237124967          0.1991537069229987 0.2570650362466586 1.0000   
         H         H         1.0       0.018352987927479525          0.14213975314908392          0.26763914169302655          1.0000   
         H         H         1.0       0.8746060662608549  0.1432044924651601  0.22205011646907377          1.0000   
         H         H         1.0       0.9087587198532848  0.17517805468132547           0.2538598746207533 1.0000   
         H         H         1.0       0.000653665822883287          0.19559282007144016          0.21683588533033585          1.0000   
         H         H         1.0       0.5514562202725755  0.14331477513367868           0.1743177773800147 1.0000   
         H         H         1.0       0.03952673021359665           0.249721589176654  0.2893124433099797 1.0000   
         H         H         1.0       0.09620144434450428           0.2907943822866771 0.27566257560253354          1.0000   
         H         H         1.0       0.05528574354700577           0.29699349673386655          0.20612745714075803          1.0000   
         H         H         1.0       0.9976924220024442  0.2529574115383548  0.2196575873341819 1.0000   
         H         H         1.0       0.9369389211861266  0.23602320783029856           0.2471211845761652 1.0000   
         H         H         1.0       0.9259071181991652  0.26964542243370143           0.26854575351411136          1.0000   
         H         H         1.0       0.9812248733211233  0.2660819413184968  0.3330790528388405 1.0000   
         H         H         1.0       0.9878133484675463  0.2282103021504152  0.31091737829557564          1.0000   
         C         C         1.0       0.842890899053679   0.3587640059826621  0.19428917723949915          1.0000   
         C         C         1.0       0.8556811518122815  0.34293175036908213           0.18347332916262085          1.0000   
         C         C         1.0       0.8866257565485489  0.3603507323438386  0.1710871882249378 1.0000   
         C         C         1.0       0.9062550417203723  0.39453360896810197           0.16916887989720192          1.0000   
         C         C         1.0       0.8929208668797549  0.4105567470637254  0.17945557584408658          1.0000   
         C         C         1.0       0.8612618387537869  0.3928778731533901  0.19216403449356606          1.0000   
         H         H         1.0       0.8420877179011724  0.31565964949525344           0.1853279675579329 1.0000   
         H         H         1.0       0.8943781219967405  0.34520598400278746           0.16318696944707686          1.0000   
         H         H         1.0       0.9101666080692692  0.43569598184955355           0.18490956950119794          1.0000   
         H         H         1.0       0.8539552373785847  0.4065947008481952  0.20379015449965804          1.0000   
         C         C         1.0       0.9395325774135732  0.45327112076422654           0.13411883033351937          1.0000   
         C         C         1.0       0.9598454328864998  0.448547690835045   0.1492955623749353 1.0000   
         C         C         1.0       0.9954669492080289  0.47164616113405555           0.14888665701371356          1.0000   
         C         C         1.0       0.011175492373283191          0.49841813064113993          0.1335534145439646 1.0000   
         C         C         1.0       0.9910406743682092  0.5024450809067919  0.1178609713618008 1.0000   
         C         C         1.0       0.9546863430326651  0.480317060882789   0.11805893956606252          1.0000   
         C         C         1.0       0.9450504733236595  0.41277283531252945           0.1596565411400826 1.0000   
         C         C         1.0       0.9510348518304312  0.39627177090474686           0.13724524137175487          1.0000   
         C         C         1.0       0.9841547448795525  0.4039274550031401  0.13228940503522393          1.0000   
         C         C         1.0       0.9932313552023915  0.3976313531222227  0.11034519134742204          1.0000   
         C         C         1.0       0.9701862286282464  0.38713103664607734           0.09108879465603192          1.0000   
         C         C         1.0       0.9362540033997302  0.3752957966075145  0.0963618644743498 1.0000   
         C         C         1.0       0.9271908948890262  0.38230593807152496           0.11853310421439994          1.0000   
         C         C         1.0       0.9751592092594812  0.43614846323342493           0.20322096163912698          1.0000   
         C         C         1.0       0.9940363732757832  0.43639370780322373           0.22288193065188577          1.0000   
         C         C         1.0       0.005859502447515652          0.4157609941592805 0.22278032709469178          1.0000   
         C         C         1.0       0.9928794881001298  0.39133085057885675           0.20547801537316449          1.0000   
         C         C         1.0       0.9675527599950178  0.38718006932073296           0.18948387689273555          1.0000   
         C         C         1.0       0.9631151390663917  0.4125599347989951  0.18531604062448845          1.0000   
         C         C         1.0       0.0400903765663263  0.4247087841751745  0.23730082573087777          1.0000   
         C         C         1.0       0.12083338506785468           0.5260823978064619 0.2574416340023945 1.0000   
         C         C         1.0       0.10973124916962496           0.5016328294003478 0.27528619208284627          1.0000   
         C         C         1.0       0.07958989457299293           0.46891956001117235          0.2696927158997873 1.0000   
         C         C         1.0       0.06430345498996837           0.4619573633779839 0.2469170968168299 1.0000   
         C         C         1.0       0.0726929206296485  0.48835962692384416           0.2318197778255948 1.0000   
         C         C         1.0       0.10138984525633266           0.5196055864482514 0.2370187399522146 1.0000   
         C         C         1.0       0.06651879841565367           0.42181332471319666          0.22043813895260808          1.0000   
         C         C         1.0       0.08695081371934776           0.4125128137997709 0.2301781953843132 1.0000   
         C         C         1.0       0.10581097652803795           0.4071725526039563 0.2155431915019626 1.0000   
         C         C         1.0       0.11036955778681312           0.415073124922156  0.19007526239274444          1.0000   
         C         C         1.0       0.09235559004923499           0.42696464916879034          0.18050177076535004          1.0000   
         C         C         1.0       0.07045665681664914           0.4305872729051993 0.19506059488698158          1.0000   
         C         C         1.0       0.9984137740435565  0.3996114231305391  0.2752226365415435 1.0000   
         C         C         1.0       0.983042811278238   0.37822234060652893           0.2943457789286116 1.0000   
         C         C         1.0       0.9821750214342104  0.34955527501662464           0.2938007214412532 1.0000   
         C         C         1.0       0.0011507890678170707         0.34572451120128067          0.2771902243672261 1.0000   
         C         C         1.0       0.016270980999030016          0.36735327924373085          0.2583423126063451 1.0000   
         C         C         1.0       0.019029636742157185          0.3973566774172775 0.25759256519890855          1.0000   
         H         H         1.0       0.9111169395006689  0.43556179509708437           0.13230155850347022          1.0000   
         H         H         1.0       0.012359080496651353          0.4658996206801805 0.15847975064540948          1.0000   
         H         H         1.0       0.038711274767393   0.5185314880043347  0.13518581198071555          1.0000   
         H         H         1.0       0.9377781552074778  0.48271330680272145           0.10643202264870286          1.0000   
         H         H         1.0       0.0037437798556587687         0.4174844023347997 0.14601444505761288          1.0000   
         H         H         1.0       0.019817873890225046          0.40877063075777365          0.10623535613643242          1.0000   
         H         H         1.0       0.916567200321399   0.3673604912451485  0.08271133061741343          1.0000   
         H         H         1.0       0.902436786082903   0.37762777788964047           0.12088691756976336          1.0000   
         H         H         1.0       0.9692729069980179  0.4542980758011856  0.20384841947856397          1.0000   
         H         H         1.0       0.0025028887973983505         0.4558933672315006 0.2362375057456013 1.0000   
         H         H         1.0       0.0005731860381981146         0.3739577927712826 0.2049804877623754 1.0000   
         H         H         1.0       0.9553272684652168  0.3667156488392559  0.17779418601788397          1.0000   
         H         H         1.0       0.12808199305141632           0.5051855826233086 0.28840144503176673          1.0000   
         H         H         1.0       0.07500178826808157           0.44985739558446075          0.28171439898611406          1.0000   
         H         H         1.0       0.06455302501509386           0.48350901479537517          0.2123322559009984 1.0000   
         H         H         1.0       0.1112282507639577  0.5349788204685108  0.22173403648679926          1.0000   
         H         H         1.0       0.09232299819813905           0.4127243745606852 0.2500781355786751 1.0000   
         H         H         1.0       0.12069558512292455           0.39993601393582745          0.22434767404596914          1.0000   
         H         H         1.0       0.09538711595074845           0.43428214473544097          0.16212917900642898          1.0000   
         H         H         1.0       0.05379923318588298           0.43774682742841425          0.1863224451170156 1.0000   
         H         H         1.0       5.8936289939026665e-05        0.42199673525254094          0.2752417092732385 1.0000   
         H         H         1.0       0.9715838345441627  0.38464191234759    0.30699518081525284          1.0000   
         H         H         1.0       0.004607373807343551          0.3256363936856891 0.27962655957689353          1.0000   
         H         H         1.0       0.028213507759975665          0.3616642980070914 0.24498508979141154          1.0000   
         C         C         1.0       0.8430722095447432  0.32568946085531475           0.9293735896557338 1.0000   
         C         C         1.0       0.8577723452499548  0.3139059083685669  0.9447814003540064 1.0000   
         C         C         1.0       0.8349835641204575  0.2813364000875665  0.9528324285705724 1.0000   
         C         C         1.0       0.800227902497007   0.2606801876049991  0.946224353114388  1.0000   
         C         C         1.0       0.789569955855083   0.2738708694285156  0.9288978986677006 1.0000   
         C         C         1.0       0.8102860506883367  0.3058901197967606  0.9205617021724041 1.0000   
         H         H         1.0       0.884167868066404   0.3301715376232706  0.951382742418526  1.0000   
         H         H         1.0       0.8453248332093588  0.27439042805583397           0.9676083649078916 1.0000   
         H         H         1.0       0.7640479125634011  0.26170552475598635           0.9203002505288372 1.0000   
         H         H         1.0       0.7991062591030165  0.31499862742374857           0.9091515987290518 1.0000   
         C         C         1.0       0.7228764582265135  0.22711474400973705           0.9594779830403541 1.0000   
         C         C         1.0       0.7355101052902255  0.2085959088142294  0.9533329093171897 1.0000   
         C         C         1.0       0.7109031065407941  0.17583862389981866           0.9492224460660402 1.0000   
         C         C         1.0       0.6767043684717083  0.16512464768377666           0.9467056010162191 1.0000   
         C         C         1.0       0.6632598880553471  0.1833650689427512  0.9510727356931536 1.0000   
         C         C         1.0       0.6883575249447074  0.21603825718262593           0.957767667041384  1.0000   
         C         C         1.0       0.776680687800163   0.22378923620354438           0.9552812666320676 1.0000   
         C         C         1.0       0.7812518028027448  0.2177242173241471  0.9828882389328323 1.0000   
         C         C         1.0       0.7673660177568946  0.18641794893509758           0.9907128193375914 1.0000   
         C         C         1.0       0.7633845539094345  0.17795858059811925           0.014915245424064638         1.0000   
         C         C         1.0       0.7752222193828812  0.2014084457747495  0.032113878393820405         1.0000   
         C         C         1.0       0.7889470890809458  0.23276661502846033           0.024870785701677  1.0000   
         C         C         1.0       0.7936943365598397  0.24281086391848308           0.0009522160900727883        1.0000   
         C         C         1.0       0.7740671783686042  0.2000527713392128  0.9117169225425076 1.0000   
         C         C         1.0       0.7785557017229264  0.18237467603556387           0.8957968078973461 1.0000   
         C         C         1.0       0.8025510177760725  0.17423768100822698           0.9008803910723743 1.0000   
         C         C         1.0       0.819694248057059   0.18485766162717324           0.9228165917624043 1.0000   
         C         C         1.0       0.8122311718677288  0.1995220193082385  0.9403702753271189 1.0000   
         C         C         1.0       0.7895388323978808  0.20825895738353584           0.9349456453008906 1.0000   
         C         C         1.0       0.8107289547798496  0.15604695867510074           0.8803240264226907 1.0000   
         C         C         1.0       0.7188161592396161  0.06743940005484816           0.8459954331463463 1.0000   
         C         C         1.0       0.7514788113232101  0.08237249854372597           0.8365481429208913 1.0000   
         C         C         1.0       0.7766757261729282  0.11319327088202127           0.8445818621158105 1.0000   
         C         C         1.0       0.774711760722613   0.1269235860143913  0.8658845118141205 1.0000   
         C         C         1.0       0.7406972747765891  0.10974579406226491           0.8752344721906015 1.0000   
         C         C         1.0       0.713200582818482   0.08202906256312792           0.864990443418983  1.0000   
         C         C         1.0       0.8262518723757194  0.13727258244641732           0.8927751496555254 1.0000   
         C         C         1.0       0.8612907615117801  0.15539420648513672           0.9005110436315065 1.0000   
         C         C         1.0       0.877242506480561   0.14094671389760702           0.9079125016578089 1.0000   
         C         C         1.0       0.857159192118996   0.10678392579092294           0.9107458151526575 1.0000   
         C         C         1.0       0.8208561953779184  0.08852710312872225           0.9071763369484787 1.0000   
         C         C         1.0       0.8060971663675722  0.10346095833296183           0.8980878699353317 1.0000   
         C         C         1.0       0.8374682819419009  0.2103317777546265  0.8531347871474441 1.0000   
         C         C         1.0       0.8628380395297924  0.2347801643854265  0.8405323251270014 1.0000   
         C         C         1.0       0.8923627867838223  0.23667753421448962           0.8352550969292111 1.0000   
         C         C         1.0       0.8899018276306325  0.20678330738867448           0.8376440798143782 1.0000   
         C         C         1.0       0.8623110967029548  0.17927993233965597           0.8494964733522115 1.0000   
         C         C         1.0       0.8367507542540474  0.18167022247385636           0.860154156954898  1.0000   
         H         H         1.0       0.7408834131943501  0.2527422596553208  0.9645352505159978 1.0000   
         H         H         1.0       0.7169557355498531  0.1588282523805676  0.9441360857597879 1.0000   
         H         H         1.0       0.6590934935597905  0.13825326284927478           0.9447640522704552 1.0000   
         H         H         1.0       0.6822628728412343  0.233949892537868   0.9633603454482408 1.0000   
         H         H         1.0       0.7541300693827395  0.16558509573219016           0.9785363613996946 1.0000   
         H         H         1.0       0.7508539203831233  0.15395018673612362           0.020269430934945376         1.0000   
         H         H         1.0       0.7922102272808134  0.24952257627496155           0.03912959640696556          1.0000   
         H         H         1.0       0.8030985576004225  0.26846035281649344           0.9954252585159036 1.0000   
         H         H         1.0       0.7567375886111956  0.2069512138180793  0.9059298515673883 1.0000   
         H         H         1.0       0.765538503619059   0.1771031826837614  0.8776183586560189 1.0000   
         H         H         1.0       0.8348557047312366  0.17675903081574193           0.9318823640307212 1.0000   
         H         H         1.0       0.8221984097190386  0.2059245702278412  0.9583974262174615 1.0000   
         H         H         1.0       0.7577839454265195  0.07284041580865619           0.8213897623309965 1.0000   
         H         H         1.0       0.8012648552294014  0.12424178751245477           0.8363209115807264 1.0000   
         H         H         1.0       0.7362735738738402  0.11632345491670827           0.893109084960574  1.0000   
         H         H         1.0       0.6876007170941155  0.06846125104960143           0.8728986514384502 1.0000   
         H         H         1.0       0.8764238767487316  0.18259757917712324           0.9002517666820549 1.0000   
         H         H         1.0       0.9037556559665731  0.15618354602998522           0.9135242590939109 1.0000   
         H         H         1.0       0.8037304579344193  0.061845554173693536         0.9094929733567837 1.0000   
         H         H         1.0       0.7781447250673179  0.08860359906976467           0.8967721460901986 1.0000   
         H         H         1.0       0.8191206012415041  0.2142713002870131  0.8626947707847841 1.0000   
         H         H         1.0       0.8622085730578914  0.2564759891300459  0.8391814573944696 1.0000   
         H         H         1.0       0.9117192536145116  0.20857137167321843           0.8353294377892733 1.0000   
         H         H         1.0       0.8602314604417945  0.15673810752872655           0.8504745243131002 1.0000   
         C         C         1.0       0.7031883516627856  0.3556723648197833  0.8417628170234716 1.0000   
         C         C         1.0       0.6694573052980036  0.34256810017772304           0.8358554836094934 1.0000   
         C         C         1.0       0.6441397059774123  0.31018762311179077           0.8390502565869257 1.0000   
         C         C         1.0       0.6532535494649295  0.2896669590596316  0.8481674449340557 1.0000   
         C         C         1.0       0.6869701425344852  0.3024387600957325  0.8534332284832199 1.0000   
         C         C         1.0       0.7109575947919888  0.33536293151512536           0.8520297724002318 1.0000   
         H         H         1.0       0.6604025974618851  0.35737799370222545           0.8274444675358933 1.0000   
         H         H         1.0       0.6174089362845497  0.29879669292731764           0.8339449917442067 1.0000   
         H         H         1.0       0.6895866150988752  0.28336396206887343           0.8583194716727873 1.0000   
         H         H         1.0       0.7358349287820029  0.3443269254700721  0.8590873562772585 1.0000   
         C         C         1.0       0.6425448606257118  0.2526173186385217  0.8954236924651198 1.0000   
         C         C         1.0       0.6267432520276606  0.23542162066256908           0.8741468697313217 1.0000   
         C         C         1.0       0.6060366073305634  0.20177086857094262           0.876895862900641  1.0000   
         C         C         1.0       0.5998421225146842  0.18488798716606195           0.8981308831284682 1.0000   
         C         C         1.0       0.6168826665547341  0.202953742340004   0.919285172001961  1.0000   
         C         C         1.0       0.6368734236556338  0.23683025902210336           0.9179454822494238 1.0000   
         C         C         1.0       0.6253964667274089  0.2526664471017256  0.8494891819317685 1.0000   
         C         C         1.0       0.6315351745644195  0.2376414657248107  0.8254488812015607 1.0000   
         C         C         1.0       0.6449167361655577  0.21778752581575028           0.825759400007921  1.0000   
         C         C         1.0       0.6458720271119517  0.20383733334197454           0.804367418148239  1.0000   
         C         C         1.0       0.6352412847261167  0.20980897321564224           0.7818528885047294 1.0000   
         C         C         1.0       0.6270869236636367  0.2322380571217741  0.781823935647066  1.0000   
         C         C         1.0       0.6254412784722929  0.2455050413978915  0.8029148058176204 1.0000   
         C         C         1.0       0.5787193273154118  0.25671460330602175           0.8710007139224006 1.0000   
         C         C         1.0       0.09261536961521766           0.2519065486280284 0.8596521737425855 1.0000   
         C         C         1.0       0.05719414640265308           0.23334318624596712          0.8571917416697017 1.0000   
         C         C         1.0       0.04421642855803354           0.220737996431529  0.8344078572418793 1.0000   
         C         C         1.0       0.06639001998152594           0.22727566186407466          0.8148185716905536 1.0000   
         C         C         1.0       0.5868157418500609  0.2438603890174983  0.8515730480840806 1.0000   
         C         C         1.0       0.02977853086280624           0.22502995283270882          0.8782683274184941 1.0000   
         C         C         1.0       0.06583860977536249           0.2767440137729672 0.9481697816702879 1.0000   
         C         C         1.0       0.08366900379807052           0.29174135122918554          0.92686936220005   1.0000   
         C         C         1.0       0.07240917396651092           0.2757099598995411 0.9049514902029407 1.0000   
         C         C         1.0       0.044365832114935166          0.24309660766963448          0.90449417004454   1.0000   
         C         C         1.0       0.02877435399448336           0.2249525639204644 0.9262649826470053 1.0000   
         C         C         1.0       0.0391914519959613  0.24233900939767475           0.9476491119566532 1.0000   
         C         C         1.0       0.010266680044475951          0.18611036139824735          0.8804137392583784 1.0000   
         C         C         1.0       0.9746027539212708  0.1641442696720792  0.8725659941652949 1.0000   
         C         C         1.0       0.9565068080546261  0.1308201678835329  0.8769653301725936 1.0000   
         C         C         1.0       0.97400022598289    0.11703547099488491           0.884487427837981  1.0000   
         C         C         1.0       0.008110679638416718          0.13798901608005668          0.8909072688371775 1.0000   
         C         C         1.0       0.02715146618479669           0.1716054376347994 0.8883347223666732 1.0000   
         C         C         1.0       0.9771937473855474  0.2288661855495018  0.8802690697332488 1.0000   
         C         C         1.0       0.9595768945597469  0.2423026858929904  0.8733974661123983 1.0000   
         C         C         1.0       0.9731127532673451  0.2675319432510116  0.8552122839366606 1.0000   
         C         C         1.0       0.0031615369858903897         0.2780781016204107 0.8453052582463948 1.0000   
         C         C         1.0       0.022137899779302916          0.265921394080288  0.8532079042825249 1.0000   
         C         C         1.0       0.007756404411401574          0.23928664158688825          0.869428180932233  1.0000   
         H         H         1.0       0.6559728370946528  0.27962240707205294           0.896741475277073  1.0000   
         H         H         1.0       0.5953481410483341  0.18806214727941273           0.8600537809261348 1.0000   
         H         H         1.0       0.5864586770475468  0.1594070487396831  0.900270211212011  1.0000   
         H         H         1.0       0.6505942765179411  0.25185591234865634           0.9342157139603576 1.0000   
         H         H         1.0       0.6508107328501181  0.21071541249212417           0.8428217549524837 1.0000   
         H         H         1.0       0.6526916330923984  0.18528303726744463           0.8039127311204306 1.0000   
         H         H         1.0       0.6218496206095477  0.23976159328771865           0.7654028761131929 1.0000   
         H         H         1.0       0.6155308971282251  0.26067774279999517           0.8022586606503646 1.0000   
         H         H         1.0       0.5976101441043798  0.27650071244471414           0.883408881197407  1.0000   
         H         H         1.0       0.10469590800681061           0.2581678685520686 0.8761900226240905 1.0000   
         H         H         1.0       0.015958761212830685          0.20527197498363633          0.8308198310852765 1.0000   
         H         H         1.0       0.053901850341441016          0.21757506454226844          0.7973773940944617 1.0000   
         H         H         1.0       0.10479397672897384           0.3180048164333513 0.9270305691400378 1.0000   
         H         H         1.0       0.08455922353780276           0.2890625620333138 0.88883846224623   1.0000   
         H         H         1.0       0.007567699141002526          0.19843890750336868          0.9260952137575922 1.0000   
         H         H         1.0       0.02380974733316865           0.23193411714458254          0.9639914579646974 1.0000   
         H         H         1.0       0.9587815449768841  0.1716880551836616  0.8661791176403508 1.0000   
         H         H         1.0       0.928532269349212   0.11524426858990089           0.8724458263099336 1.0000   
         H         H         1.0       0.01947552662258145           0.12805369308240452          0.9020855487673181 1.0000   
         H         H         1.0       0.05337755397153954           0.18768396481256208          0.8953719898795187 1.0000   
         H         H         1.0       0.9642299136723482  0.2100286571303702  0.8942921809195798 1.0000   
         H         H         1.0       0.9331435738369604  0.23382489433649914           0.8808826369646465 1.0000   
         H         H         1.0       0.013765916320901184          0.2974111416952268 0.8321652710879195 1.0000   
         H         H         1.0       0.04786898061814315           0.27741187871234146          0.8441853830147442 1.0000   
         C         C         1.0       0.7525808793676965  0.42013385210162973           0.6239940424978405 1.0000   
         C         C         1.0       0.722972074672725   0.4067868666298604  0.6374420412437523 1.0000   
         C         C         1.0       0.7004448456536522  0.4157242197497565  0.633731521016585  1.0000   
         C         C         1.0       0.7083118387733198  0.4406647583478586  0.615829356873508  1.0000   
         C         C         1.0       0.734642090070333   0.45079198553598665           0.5998708869890261 1.0000   
         C         C         1.0       0.7544939964930436  0.4385042350961373  0.6039437789224608 1.0000   
         H         H         1.0       0.7189576960683197  0.3886674460542164  0.6516075258568911 1.0000   
         H         H         1.0       0.677024219695464   0.4059769942168642  0.6433433481680256 1.0000   
         H         H         1.0       0.7367338319135951  0.46338790258210777           0.5843832090595859 1.0000   
         H         H         1.0       0.7776216780689132  0.4504104132626901  0.5922669462566655 1.0000   
         C         C         1.0       0.7164187937080988  0.5078491765998898  0.5893623933782294 1.0000   
         C         C         1.0       0.6893483191013441  0.4734743169798085  0.5891035239246591 1.0000   
         C         C         1.0       0.6719433739170275  0.461216594266019   0.5672103557552869 1.0000   
         C         C         1.0       0.675494773976669   0.4802180341621882  0.547985145502925  1.0000   
         C         C         1.0       0.7000320290549181  0.5134080083377911  0.5492433834174575 1.0000   
         C         C         1.0       0.7214849333353494  0.5272495119245831  0.5699512948524652 1.0000   
         C         C         1.0       0.6797316100952844  0.45029666726523704           0.6135768804069246 1.0000   
         C         C         1.0       0.6809320451287394  0.4698902585767648  0.6380650382638772 1.0000   
         C         C         1.0       0.6690336297757371  0.489974082658327   0.6365487051380888 1.0000   
         C         C         1.0       0.6718764785376165  0.5094439725241926  0.6551655769063569 1.0000   
         C         C         1.0       0.6890309048257175  0.5111259440921624  0.6760898236512981 1.0000   
         C         C         1.0       0.6983614128975786  0.48930586542682536           0.6793826442652565 1.0000   
         C         C         1.0       0.6966409761935539  0.4710346639483271  0.6603782225071495 1.0000   
         C         C         1.0       0.6373233144465086  0.3903843986604484  0.5997159122554784 1.0000   
         C         C         1.0       0.10837883773116541           0.4173642287071286 0.5086549023117016 1.0000   
         C         C         1.0       0.0856856975945044  0.40349670787004327           0.5279984974178344 1.0000   
         C         C         1.0       0.09770375886110694           0.42156819027693265          0.5499739455898921 1.0000   
         C         C         1.0       0.13065135375244075           0.4496478410611827 0.5528909119562624 1.0000   
         C         C         1.0       0.640864695335817   0.41704428023181794           0.6099396557320482 1.0000   
         C         C         1.0       0.04811029091052377           0.37180730809654583          0.5245134068229003 1.0000   
         C         C         1.0       0.9968391079867083  0.41976866584105366           0.49905664699568447          1.0000   
         C         C         1.0       0.013262466894066183          0.41125705118158623          0.48365675121433754          1.0000   
         C         C         1.0       0.03228573734410767           0.39938966589062047          0.49198294557324407          1.0000   
         C         C         1.0       0.03135103583447174           0.391831619357929  0.5165137013203955 1.0000   
         C         C         1.0       0.01732745432606775           0.40199931940914946          0.5332078955506582 1.0000   
         C         C         1.0       0.0010036163657629604         0.41664305484375846          0.5247406911794354 1.0000   
         C         C         1.0       0.03327742125554822           0.34962486640748025          0.5488037223459347 1.0000   
         C         C         1.0       0.053652899817779875          0.34771701487258144          0.5666461714730293 1.0000   
         C         C         1.0       0.040732459594333914          0.33385235523046897          0.5890545731046345 1.0000   
         C         C         1.0       0.00797041027220824           0.32131128449226204          0.5954061195651462 1.0000   
         C         C         1.0       0.9865013172166929  0.32087272010377255           0.577994298394766  1.0000   
         C         C         1.0       0.9979170685738896  0.3332609951937649  0.5548763754813268 1.0000   
         C         C         1.0       0.010200441528499304          0.3287266648528946 0.4937915720402963 1.0000   
         C         C         1.0       0.002104604502348506          0.30326355169079394          0.4794197363698893 1.0000   
         C         C         1.0       0.025385139422639202          0.2957301208236396 0.47548815149848833          1.0000   
         C         C         1.0       0.05678982980868463           0.3112182757750428 0.4874005268533245 1.0000   
         C         C         1.0       0.06432598892581964           0.3355788313603467 0.5033063053178075 1.0000   
         C         C         1.0       0.04156379666800425           0.34518018285810903          0.506504500234427  1.0000   
         H         H         1.0       0.7286896201864743  0.5195773927300762  0.606820247215897  1.0000   
         H         H         1.0       0.6513237440835017  0.43686285229041955           0.5665145138249477 1.0000   
         H         H         1.0       0.6599612089659912  0.4684082866807284  0.5323925239160557 1.0000   
         H         H         1.0       0.7407183858005865  0.5526457517406854  0.5720997158561312 1.0000   
         H         H         1.0       0.6566488491603187  0.49020468839491854           0.6202328411999418 1.0000   
         H         H         1.0       0.6621203699333339  0.524704307373553   0.6533719114925742 1.0000   
         H         H         1.0       0.7090698741532152  0.4872137597613636  0.6966457058797234 1.0000   
         H         H         1.0       0.7059524758956796  0.45561788468528275           0.6623662323703247 1.0000   
         H         H         1.0       0.6588220433800879  0.38909216965087223           0.5968936294808053 1.0000   
         H         H         1.0       0.10085741095521317           0.4073100477426035 0.49054511006370655          1.0000   
         H         H         1.0       0.08044169375365384           0.4151847051400732 0.5657874364708944 1.0000   
         H         H         1.0       0.1374442374214424  0.4650381631882379  0.5696309472233415 1.0000   
         H         H         1.0       0.00963709896810272           0.4124455207061672 0.4641712156461616 1.0000   
         H         H         1.0       0.043752628864369925          0.3919651380805593 0.4789697638909919 1.0000   
         H         H         1.0       0.019666775654580304          0.39990804049091244          0.5516166051288839 1.0000   
         H         H         1.0       0.9895787153627079  0.421058992196589   0.5390945058620288 1.0000   
         H         H         1.0       0.08131929859716758           0.35750085181115265          0.562576590023832  1.0000   
         H         H         1.0       0.05939165621117737           0.335475185818105  0.6002908825165231 1.0000   
         H         H         1.0       0.9601756612620108  0.31245835299425906           0.5812020108937329 1.0000   
         H         H         1.0       0.9792455687582828  0.331788979293568   0.5414245703282032 1.0000   
         H         H         1.0       0.9896978220311916  0.3332838124641707  0.4959055829390084 1.0000   
         H         H         1.0       0.9770955563332004  0.29082095649867185           0.4715031341700109 1.0000   
         H         H         1.0       0.07372169373873283           0.3039053548340049 0.4839510949666507 1.0000   
         H         H         1.0       0.0895755317967899  0.3502100624121311  0.512257633333536  1.0000   
         C         C         1.0       0.7852588401275253  0.46627515467011127           0.4008488502305358 1.0000   
         C         C         1.0       0.7539253771469122  0.4605124409644775  0.4072606000801976 1.0000   
         C         C         1.0       0.7512254859607984  0.4832557610989118  0.4185018046924211 1.0000   
         C         C         1.0       0.7799253627893544  0.51378909548126    0.4222034519502742 1.0000   
         C         C         1.0       0.8112638472950521  0.5216065096502737  0.41337181940616397          1.0000   
         C         C         1.0       0.8145151024506535  0.4980117487740092  0.40264687409195155          1.0000   
         H         H         1.0       0.7271969617037508  0.4360579268896344  0.40326968145395853          1.0000   
         H         H         1.0       0.7250152281708708  0.47297434085444984           0.42321461725125253          1.0000   
         H         H         1.0       0.8348782085046987  0.5478808965877244  0.41400023152049914          1.0000   
         H         H         1.0       0.8402076922388216  0.5063646303469387  0.3964297784386121 1.0000   
         C         C         1.0       0.7357096717788325  0.5098334278732185  0.4668670830835871 1.0000   
         C         C         1.0       0.7391031644065428  0.5272980197357018  0.4472688216082145 1.0000   
         C         C         1.0       0.7164250159487303  0.5368588716900966  0.4437590634865261 1.0000   
         C         C         1.0       0.6931508084812102  0.5309769057771804  0.4619900703475776 1.0000   
         C         C         1.0       0.6965345096965464  0.5197714118689306  0.48379207183013473          1.0000   
         C         C         1.0       0.7155670547713466  0.5066982537474921  0.4862425622797199 1.0000   
         C         C         1.0       0.7728150576248398  0.5402776559560056  0.4305236349088994 1.0000   
         C         C         1.0       0.768165623012283   0.5510536393479089  0.4020467940066383 1.0000   
         C         C         1.0       0.7981042164302639  0.5762991650104451  0.3912596648219876 1.0000   
         C         C         1.0       0.802485502561723   0.5773356782590133  0.3665943864485351 1.0000   
         C         C         1.0       0.7756558151778848  0.5520329000187623  0.351809874602107  1.0000   
         C         C         1.0       0.7432024931322513  0.5300402384244965  0.3622443774972267 1.0000   
         C         C         1.0       0.7402434109746912  0.5299737281031665  0.3872486352690978 1.0000   
         C         C         1.0       0.8548814589236619  0.0625674726509502  0.5036307195666849 1.0000   
         C         C         1.0       0.8676258873000803  0.09429571567254902           0.49609584254680605          1.0000   
         C         C         1.0       0.8432269638499233  0.1007031303983235  0.48879728703874104          1.0000   
         C         C         1.0       0.8084773224038786  0.07562199309120632           0.48645056139144427          1.0000   
         C         C         1.0       0.7977205175219128  0.04303336051494289           0.4919248271508446 1.0000   
         C         C         1.0       0.8214329871372328  0.03706608609231754           0.5015225302677974 1.0000   
         C         C         1.0       0.852448430432896   0.13736113677336856           0.4879457909562309 1.0000   
         C         C         1.0       0.8070553115557617  0.12768805451034101           0.5615007810103366 1.0000   
         C         C         1.0       0.8395436280996991  0.13505617552853535           0.5589255286413811 1.0000   
         C         C         1.0       0.8532824401148669  0.1399297450790773  0.536463231483401  1.0000   
         C         C         1.0       0.8375087309333977  0.13815421186336474           0.5145026406267555 1.0000   
         C         C         1.0       0.8033910083012199  0.1283683125882596  0.5177431325476227 1.0000   
         C         C         1.0       0.7868026599535816  0.1230134298567403  0.5401103819127148 1.0000   
         C         C         1.0       0.8353846216270099  0.14446358982449858           0.46569726094042857          1.0000   
         C         C         1.0       0.8233074293291355  0.12694809729888085           0.4436727973670145 1.0000   
         C         C         1.0       0.8110322832366172  0.13609520640473435           0.4245566932846686 1.0000   
         C         C         1.0       0.8069597042475031  0.16176295164568488           0.4280570188334623 1.0000   
         C         C         1.0       0.8187745546870213  0.17932782074258122           0.44995245938208034          1.0000   
         C         C         1.0       0.8343344238857205  0.1718791187198291  0.46752732745711023          1.0000   
         C         C         1.0       0.9113872412624634  0.19520850989350189           0.49849839594380824          1.0000   
         C         C         1.0       0.9479947233652689  0.2171695243210767  0.49654215816132835          1.0000   
         C         C         1.0       0.9635244235889452  0.21135077460109766           0.4794879424663574 1.0000   
         C         C         1.0       0.9463584313161508  0.18437323715741644           0.46473657171648575          1.0000   
         C         C         1.0       0.9112557241114602  0.16211438684821128           0.46765165005733433          1.0000   
         C         C         1.0       0.8935845417049978  0.16551692608165353           0.4854210030674638 1.0000   
         H         H         1.0       0.7514887478834573  0.4997906588460206  0.470456979795498  1.0000   
         H         H         1.0       0.7165814572341248  0.5498840930961604  0.42776121302488096          1.0000   
         H         H         1.0       0.6772028761894197  0.5417809809891547  0.46070915517993405          1.0000   
         H         H         1.0       0.7144990687017166  0.494560732634255   0.5033400967598213 1.0000   
         H         H         1.0       0.8220276081040288  0.5895021251226347  0.40162524732487914          1.0000   
         H         H         1.0       0.8276475437817935  0.5898642183537808  0.3571519333384531 1.0000   
         H         H         1.0       0.7206482998425907  0.5128705005715549  0.3499568108498473 1.0000   
         H         H         1.0       0.715382982484377   0.5100569828959547  0.39494980397437673          1.0000   
         H         H         1.0       0.8245502006158372  0.5478925360959433  0.46206187588167047          1.0000   
         H         H         1.0       0.8957797222262058  0.11138275808923705           0.4995266765296056 1.0000   
         H         H         1.0       0.7874918494071179  0.08015665834611974           0.482942754778849  1.0000   
         H         H         1.0       0.7697576288585952  0.023369321841997914         0.49485705351955217          1.0000   
         H         H         1.0       0.8559341234993534  0.13884305586614304           0.5741842488701173 1.0000   
         H         H         1.0       0.8795720830184166  0.14427046248466327           0.5359274172306926 1.0000   
         H         H         1.0       0.7876786701857758  0.12237798831653642           0.5014732847984759 1.0000   
         H         H         1.0       0.7613743731320293  0.11733664740933634           0.5411194859085493 1.0000   
         H         H         1.0       0.8234632795019327  0.10556829564890728           0.4421702072902036 1.0000   
         H         H         1.0       0.8023497512480351  0.1212859183960892  0.4090315544274427 1.0000   
         H         H         1.0       0.8149729057669176  0.1990955460143986  0.451700889404468  1.0000   
         H         H         1.0       0.84115797233616    0.1847600007050313  0.4837861221625103 1.0000   
         H         H         1.0       0.9005996885619508  0.2029689522305208  0.5106209308298871 1.0000   
         H         H         1.0       0.9607618218039544  0.23875796744267963           0.5089707047710041 1.0000   
         H         H         1.0       0.9587143879621135  0.1785233610578978  0.4500207107060693 1.0000   
         H         H         1.0       0.8980673371313362  0.1418031263266591  0.45585567755734396          1.0000   
         C         C         1.0       0.9694123375771027  0.6437413252308559  0.8603304148623478 1.0000   
         C         C         1.0       0.9444087882490615  0.6500331529909478  0.8660282269566217 1.0000   
         C         C         1.0       0.9303855064316897  0.6581917362375682  0.8475313047781879 1.0000   
         C         C         1.0       0.9400098729745722  0.6589708845879642  0.8236078476294219 1.0000   
         C         C         1.0       0.9610294342955654  0.6490930550711062  0.8178900455956835 1.0000   
         C         C         1.0       0.9772078906217919  0.6424427984541876  0.8367314892213382 1.0000   
         H         H         1.0       0.9372362260406573  0.6511928389303694  0.8843014286044265 1.0000   
         H         H         1.0       0.9118836451491557  0.6629452645893489  0.8537042197042557 1.0000   
         H         H         1.0       0.8799241787391157  0.06464580325384772           0.8030896695827013 1.0000   
         H         H         1.0       0.9352758151983989  0.08069820430966534           0.8265442278081644 1.0000   
         C         C         1.0       0.8277431566435923  0.078206262769563   0.811981022635857  1.0000   
         C         C         1.0       0.8117093319058445  0.04657311167265643           0.8013111998629002 1.0000   
         C         C         1.0       0.7955372924669876  0.04163262625056641           0.7787547646396666 1.0000   
         C         C         1.0       0.796894417450524   0.06688180343676708           0.7675843105880225 1.0000   
         C         C         1.0       0.8118528771944363  0.09706698050614371           0.7781817625444604 1.0000   
         C         C         1.0       0.8276860894844992  0.10325881166820236           0.8010858133628571 1.0000   
         C         C         1.0       0.923169196554439   0.6676045593065559  0.8010775130753743 1.0000   
         C         C         1.0       0.9130433138145209  0.6938253313182773  0.8067937107990792 1.0000   
         C         C         1.0       0.8858575097228272  0.6914303935121929  0.7947188783668443 1.0000   
         C         C         1.0       0.8826554126594     0.7185802931054083  0.7956494101658655 1.0000   
         C         C         1.0       0.7175376834763778  0.0016917283085464696        0.84786240150891   1.0000   
         C         C         1.0       0.7476813127262516  0.01723115689173227           0.8613475092410282 1.0000   
         C         C         1.0       0.7762995400672692  0.018789879698890566         0.8526890508251481 1.0000   
         C         C         1.0       0.8946209092956892  0.6143613676193732  0.7757387955723999 1.0000   
         C         C         1.0       0.8682070697849503  0.5828434449340121  0.7691854079271214 1.0000   
         C         C         1.0       0.8374010756008733  0.5658015128370798  0.7820296722838876 1.0000   
         C         C         1.0       0.8322856162255122  0.5831260002283855  0.7995617309786024 1.0000   
         C         C         1.0       0.8597746051875088  0.6141985224382086  0.8068844074695259 1.0000   
         C         C         1.0       0.8913788738726418  0.6308489306216646  0.7944209484010336 1.0000   
         C         C         1.0       0.8071726700581439  0.5284633954985337  0.7740790905848546 1.0000   
         C         C         1.0       0.7528570848905646  0.5517835472769872  0.7205600160755128 1.0000   
         C         C         1.0       0.7810197770547167  0.5525461638950263  0.7130191757210508 1.0000   
         C         C         1.0       0.796340621787051   0.5418496201044216  0.7300738097882061 1.0000   
         C         C         1.0       0.787401136419559   0.5359132613959585  0.7544685754538311 1.0000   
         C         C         1.0       0.7600598711448021  0.5384246409048343  0.7611697489964504 1.0000   
         C         C         1.0       0.7445937860927394  0.5478939923146315  0.7442761457310142 1.0000   
         C         C         1.0       0.7832441567807409  0.5046742347926781  0.7941941248071429 1.0000   
         C         C         1.0       0.7969632226967182  0.5043990316284016  0.8174630812561355 1.0000   
         C         C         1.0       0.7801802905515876  0.4783582374891703  0.8342895364436305 1.0000   
         C         C         1.0       0.7485569165700401  0.4499589235033571  0.8272726592454474 1.0000   
         C         C         1.0       0.7350736189472862  0.4501549654506748  0.8042674308611399 1.0000   
         C         C         1.0       0.7525686927935467  0.4759809016230537  0.787908199413953  1.0000   
         C         C         1.0       0.8082775675685678  0.4846667062359339  0.7472458781498843 1.0000   
         C         C         1.0       0.8233721452208428  0.4682202099213105  0.7401901956776905 1.0000   
         C         C         1.0       0.8505324161472283  0.4721540780830038  0.7535751943577255 1.0000   
         C         C         1.0       0.8646947592357676  0.4954255039663276  0.7712754717387049 1.0000   
         C         C         1.0       0.8516140341690346  0.5132836395906272  0.7780886098061389 1.0000   
         C         C         1.0       0.8229570258614688  0.5081916615458402  0.7653527788686479 1.0000   
         H         H         1.0       0.8395639991708377  0.0833336323339462  0.8304280736313466 1.0000   
         H         H         1.0       0.9079146687928927  0.6695203137829565  0.7507787206762653 1.0000   
         H         H         1.0       0.7859998105468395  0.06508783022624476           0.7499410164324668 1.0000   
         H         H         1.0       0.8395875319410355  0.12649861047141417           0.8106014831157051 1.0000   
         H         H         1.0       0.8700713498117251  0.6714902032539501  0.7825399126236475 1.0000   
         H         H         1.0       0.861393607729731   0.7170471669194094  0.7870220595032015 1.0000   
         H         H         1.0       0.752616156111297   0.03314236694545958           0.8773291850605722 1.0000   
         H         H         1.0       0.800925130952831   0.03266835840741544           0.8632772286849516 1.0000   
         H         H         1.0       0.9195817445667402  0.6243485686208983  0.7663262230503198 1.0000   
         H         H         1.0       0.8791499030265724  0.5716239411617166  0.7575413112657635 1.0000   
         H         H         1.0       0.8077728134538146  0.5725995120395173  0.8089730738089008 1.0000   
         H         H         1.0       0.855806613014799   0.6293062703471831  0.8200288421741718 1.0000   
         H         H         1.0       0.789374865032251   0.5594932816885733  0.6947689374962245 1.0000   
         H         H         1.0       0.8180796134930941  0.5413170421377236  0.7250513525938319 1.0000   
         H         H         1.0       0.7492736837531663  0.5322830057316981  0.7786015742523854 1.0000   
         H         H         1.0       0.7258537440135348  0.5519967894995922  0.7514772688020526 1.0000   
         H         H         1.0       0.8203171550017531  0.5267110660447366  0.8254040426228224 1.0000   
         H         H         1.0       0.7898912756392703  0.4812065483747535  0.8536339900664488 1.0000   
         H         H         1.0       0.71293690733241    0.4265837948293989  0.7988087048874635 1.0000   
         H         H         1.0       0.741537929700851   0.46972154703322844           0.7694623849049687 1.0000   
         H         H         1.0       0.7865731719296871  0.4826054345728394  0.7367829615595561 1.0000   
         H         H         1.0       0.8129748212224386  0.45058502755364954           0.7246309429900075 1.0000   
         H         H         1.0       0.8864249291209322  0.4981179871584502  0.7800427031582629 1.0000   
         H         H         1.0       0.8636106775227385  0.529586719197787   0.7933669255397795 1.0000   
         C         C         1.0       0.9512164216970489  0.31374530083744634           0.648571631595696  1.0000   
         C         C         1.0       0.9223306194036848  0.3044806065551489  0.6352091733436849 1.0000   
         C         C         1.0       0.8904171498441797  0.2819235023374761  0.6430556565694694 1.0000   
         C         C         1.0       0.8860393664033366  0.2671170842193272  0.666536896158241  1.0000   
         C         C         1.0       0.915234905908412   0.28028256510028715           0.6819894334902948 1.0000   
         C         C         1.0       0.9485648557090437  0.30178993483400707           0.6722370906757913 1.0000   
         H         H         1.0       0.9259014259527185  0.3150443956573721  0.615869346122799  1.0000   
         H         H         1.0       0.8698112369006377  0.2758565529113642  0.6319667073640827 1.0000   
         H         H         1.0       0.9135141782266216  0.2696804339756399  0.6999537091018705 1.0000   
         H         H         1.0       0.9707768602619316  0.30665520940937907           0.6824876423330175 1.0000   
         C         C         1.0       0.8710350207908486  0.20496919728261895           0.6934848873949523 1.0000   
         C         C         1.0       0.8463313529571378  0.2117144914225226  0.6940443183669188 1.0000   
         C         C         1.0       0.8204296764921258  0.19631295512704403           0.7111760593005675 1.0000   
         C         C         1.0       0.8196937206856627  0.1743667320758344  0.7271112575180027 1.0000   
         C         C         1.0       0.8451044554860045  0.16849284873367407           0.7276364063536163 1.0000   
         C         C         1.0       0.8719279752291986  0.18497473643226964           0.7115777830262767 1.0000   
         C         C         1.0       0.8471296398946524  0.2351728569758041  0.6735833013938063 1.0000   
         C         C         1.0       0.8260085528141824  0.20916263978101374           0.6521444735032735 1.0000   
         C         C         1.0       0.788536680899463   0.187707468825717   0.6504081608369755 1.0000   
         C         C         1.0       0.771895398393854   0.16332986670624539           0.6328422832538816 1.0000   
         C         C         1.0       0.7911081890263886  0.16114731562831508           0.6158537042052552 1.0000   
         C         C         1.0       0.8260605308082964  0.18040863455679457           0.6167242097923089 1.0000   
         C         C         1.0       0.843153507989267   0.2042341631971973  0.6350948220553088 1.0000   
         C         C         1.0       0.8345857887283147  0.2682737460796636  0.7034647090519702 1.0000   
         C         C         1.0       0.8198140615295275  0.2847280188975882  0.7097694775861899 1.0000   
         C         C         1.0       0.8018089568420089  0.28915256925332483           0.6916440169990824 1.0000   
         C         C         1.0       0.7995045841433346  0.2770181261235293  0.6685387744050858 1.0000   
         C         C         1.0       0.8135931129090263  0.2608441184861547  0.6620355281787008 1.0000   
         C         C         1.0       0.8314193562550714  0.2553997461848557  0.6805882219030305 1.0000   
         C         C         1.0       0.7819495899848296  0.3054418765856551  0.6999357385817495 1.0000   
         C         C         1.0       0.6920680667799599  0.22327492689639394           0.7380812319541367 1.0000   
         C         C         1.0       0.7196190216223313  0.24702771341298352           0.7514240437118136 1.0000   
         C         C         1.0       0.7488444022043825  0.2738055122641973  0.7403992598791899 1.0000   
         C         C         1.0       0.7506873306978433  0.2760858287230761  0.7142102482501849 1.0000   
         C         C         1.0       0.7235845197055499  0.2520667299919902  0.701098919993498  1.0000   
         C         C         1.0       0.6944860544540585  0.22514668815619765           0.7128552649966157 1.0000   
         C         C         1.0       0.7740779969458097  0.32136391336688663           0.6778349596644341 1.0000   
         C         C         1.0       0.7995576797459303  0.34110050876517156           0.6613405503378271 1.0000   
         C         C         1.0       0.7959035232216032  0.3588907389884881  0.6440481050996476 1.0000   
         C         C         1.0       0.7646217086937768  0.3558422932384842  0.6420033751638307 1.0000   
         C         C         1.0       0.738788158343905   0.33603546587408434           0.658601706148486  1.0000   
         C         C         1.0       0.7434743383307485  0.31992140949835096           0.6765213911668819 1.0000   
         C         C         1.0       0.7903722657441135  0.35180711631388634           0.7288703948056803 1.0000   
         C         C         1.0       0.8095452392845441  0.3816632937570795  0.741294974454381  1.0000   
         C         C         1.0       0.8454518071095235  0.40007795532952817           0.7403590413811239 1.0000   
         C         C         1.0       0.8623680276509007  0.3897899239828431  0.726335414561875  1.0000   
         C         C         1.0       0.8419020688289347  0.3586720283160389  0.7153242037740062 1.0000   
         C         C         1.0       0.8057305626177009  0.3389992207031673  0.7165102982083306 1.0000   
         H         H         1.0       0.8846704223220635  0.2117357256161817  0.6770386233140125 1.0000   
         H         H         1.0       0.8009370945062826  0.2002920251083839  0.7114587670259923 1.0000   
         H         H         1.0       0.7963435526751007  0.15859685497123782           0.7372843632448539 1.0000   
         H         H         1.0       0.8899246523802674  0.17659611119639185           0.7091461538886771 1.0000   
         H         H         1.0       0.7721335550189974  0.19002226472130002           0.66305849617339   1.0000   
         H         H         1.0       0.7444289460004404  0.14867345312342672           0.6318927474426695 1.0000   
         H         H         1.0       0.8421380576701802  0.17579643029532016           0.6054897611068701 1.0000   
         H         H         1.0       0.8707976481430443  0.214996206687133   0.6364283393859935 1.0000   
         H         H         1.0       0.8467169306131038  0.26459781339059235           0.7191786093054777 1.0000   
         H         H         1.0       0.8218259059962645  0.29399227297406666           0.7272463693114444 1.0000   
         H         H         1.0       0.7846724593774171  0.2810874267446045  0.6551644242215034 1.0000   
         H         H         1.0       0.8132268150884838  0.252234169683436   0.6430918576742963 1.0000   
         H         H         1.0       0.7146076708174632  0.2430843805992359  0.7712485107766539 1.0000   
         H         H         1.0       0.770296173250404   0.29370511687142037           0.7506840242371707 1.0000   
         H         H         1.0       0.7242154573515446  0.2518929104866965  0.6811325468754647 1.0000   
         H         H         1.0       0.6763972477954971  0.20931145407019472           0.6997798526461108 1.0000   
         H         H         1.0       0.8232225615572274  0.34104121306751606           0.6608017062665458 1.0000   
         H         H         1.0       0.8142396610120394  0.36888846532820224           0.6312781449462175 1.0000   
         H         H         1.0       0.7133742663051075  0.3317337315892505  0.6570934850645166 1.0000   
         H         H         1.0       0.7188704701299667  0.3022177342807138  0.686071088161876  1.0000   
         H         H         1.0       0.7625100817586723  0.3401098702442492  0.7282777693486456 1.0000   
         H         H         1.0       0.7986749398074428  0.39040602079082204           0.7538514457972432 1.0000   
         H         H         1.0       0.8902925392960216  0.40368128532944253           0.7237550414422076 1.0000   
         H         H         1.0       0.854212937031585   0.35107455950679267           0.7040455112099661 1.0000   
         C         C         1.0       0.8135082567225653  0.12487464817735931           0.7635638523196295 1.0000   
         C         C         1.0       0.8452746384269718  0.14446707826997404           0.7463770742955034 1.0000   
         H         H         1.0       0.7899978451646605  0.1151835086324725  0.7528948583454055 1.0000   
         H         H         1.0       0.8104046820405388  0.14051968391048    0.7762149775522138 1.0000   
         H         H         1.0       0.8489453744681086  0.12906552030648152           0.7349601355735772 1.0000   
         H         H         1.0       0.869572380976947   0.15650129353589454           0.7572297245882068 1.0000   
         C         C         1.0       0.8676884350098077  0.43227799121274213           0.7554619854317185 1.0000   
         C         C         1.0       0.8733180869029292  0.4618245883114611  0.7423768622805375 1.0000   
         H         H         1.0       0.8546566385839024  0.42864340051782335           0.7729088445710323 1.0000   
         H         H         1.0       0.8932126859870151  0.4373543337862286  0.7609753081008003 1.0000   
         H         H         1.0       0.8691624890656299  0.45503626587381724           0.7216982262890311 1.0000   
         H         H         1.0       0.9009166884157107  0.48235118935603993           0.7441857845024722 1.0000   
         C         C         1.0       0.7867637557590268  0.1153368942141722  0.5863972034138277 1.0000   
         C         C         1.0       0.7699962972595895  0.13298852380971168           0.5956611501000554 1.0000   
         H         H         1.0       0.7996041571437419  0.11187337974941272           0.6022810985538842 1.0000   
         H         H         1.0       0.7625874067182696  0.08889491586012754           0.5835235337924478 1.0000   
         H         H         1.0       0.7424348751453842  0.11535547249457104           0.6011477854822381 1.0000   
         H         H         1.0       0.7699217539196904  0.14633455258733288           0.5788170980548573 1.0000   
         C         C         1.0       0.6975848674967773  0.5373098982946318  0.695460133344706  1.0000   
         C         C         1.0       0.7357882813913011  0.5628817754512385  0.7027401074818725 1.0000   
         H         H         1.0       0.6850706336433643  0.5498911174294527  0.6890643016538488 1.0000   
         H         H         1.0       0.6819479090614113  0.5250801942370544  0.7122678598676114 1.0000   
         H         H         1.0       0.7497061656382752  0.5721467847900984  0.6857180762890744 1.0000   
         H         H         1.0       0.738772068546116   0.5831342083104992  0.7127394969883036 1.0000   
         C         C         1.0       0.702298362637357   0.5374582168948179  0.5303794980611809 1.0000   
         C         C         1.0       0.6804705065534588  0.5237593090346737  0.5059925498981527 1.0000   
         H         H         1.0       0.6951718695706379  0.5545339515616589  0.5386900703715088 1.0000   
         H         H         1.0       0.729231771712663   0.5544938169483968  0.5243704458753654 1.0000   
         H         H         1.0       0.6540570438789352  0.5021652771395111  0.5105074321337734 1.0000   
         H         H         1.0       0.6775758422043041  0.5443977154962474  0.5012506507480833 1.0000   
         C         C         1.0       0.01517838477827027           0.26695597010976224          0.4602089958365863 1.0000   
         C         C         1.0       0.002549353482839134          0.2345219074794243 0.47449708767440846          1.0000   
         H         H         1.0       0.992932950275671   0.2622952783905224  0.44748656654062935          1.0000   
         H         H         1.0       0.03380010145678636           0.27055310096094265          0.4476012748727552 1.0000   
         H         H         1.0       0.016429992703592466          0.23860807973479267          0.4912555561933216 1.0000   
         H         H         1.0       0.011566978817985518          0.22073474091435105          0.4636447218320785 1.0000   
         C         C         1.0       0.7769097724913717  0.4086184842153574  0.6263572103693095 1.0000   
         C         C         1.0       0.759098451998474   0.3718873141491947  0.62074644527489   1.0000   
         H         H         1.0       0.7864282846536742  0.414190522852579   0.6447180760651807 1.0000   
         H         H         1.0       0.8007494480430511  0.42404091281253337           0.6157703783136838 1.0000   
         H         H         1.0       0.7720304775020498  0.37235032146456665           0.6040980966830248 1.0000   
         H         H         1.0       0.7304277199170941  0.35960010212675253           0.6165750175254434 1.0000   
         C         C         1.0       0.9856078902333208  0.3311746702359175  0.6350514940835551 1.0000   
         C         C         1.0       0.9931694997112652  0.3088007136889358  0.6218717937452043 1.0000   
         H         H         1.0       0.0071281057410208515         0.3476119404858618 0.6474470734851698 1.0000   
         H         H         1.0       0.988697287424867   0.35037213850243915           0.6220505982287113 1.0000   
         H         H         1.0       0.9713659747229503  0.28260660848848784           0.6206027703964442 1.0000   
         H         H         1.0       0.014107763261009154          0.30830546576390894          0.6326856867226586 1.0000   
         C         C         1.0       0.6310189124182529  0.19276023200127745           0.7579373675426787 1.0000   
         C         C         1.0       0.6617621815847455  0.19214819648469503           0.7495574040884594 1.0000   
         H         H         1.0       0.6087150675940339  0.16648851688502045           0.7610134173991145 1.0000   
         H         H         1.0       0.6204718995117636  0.20278037718411768           0.7443510242710399 1.0000   
         H         H         1.0       0.6530782111079317  0.17364555434342868           0.7347160647532148 1.0000   
         H         H         1.0       0.6703993156104935  0.18265591278175808           0.7653087842805776 1.0000   
         C         C         1.0       0.7332352487938562  0.39130376711815174           0.8343374437833416 1.0000   
         C         C         1.0       0.7295498450735969  0.4182640396324639  0.8441246992275419 1.0000   
         H         H         1.0       0.7585277927223146  0.39713142342645463           0.8407353955365016 1.0000   
         H         H         1.0       0.7356130675365339  0.39297463327696824           0.81427551737639   1.0000   
         H         H         1.0       0.7379830115564201  0.4231565038805311  0.8636423132546143 1.0000   
         H         H         1.0       0.7034357381711682  0.4101971314490952  0.8459130988654642 1.0000   
         C         C         1.0       0.9561129290248328  0.0803449543752488  0.889861419215814  1.0000   
         C         C         1.0       0.9414407094791263  0.05650268501325995           0.8687738365156272 1.0000   
         H         H         1.0       0.9716051892966953  0.0748009310588067  0.9009527577876647 1.0000   
         H         H         1.0       0.9339205842176026  0.0727293278600809  0.9028508333161063 1.0000   
         H         H         1.0       0.9604822411526878  0.06601469645345204           0.8550847892450918 1.0000   
         H         H         1.0       0.9804946564784072  0.6434527152787812  0.899265187593404  1.0000   
         C         C         1.0       0.6853476414843139  0.004084248242935518         0.8527756994396821 1.0000   
         C         C         1.0       0.6883231349701037  0.03293244137299833           0.8380226200651696 1.0000   
         H         H         1.0       0.6594273051324986  0.9826422571559483  0.8450582775967134 1.0000   
         H         H         1.0       0.6833338078201892  0.007098936041063375         0.8732675538040721 1.0000   
         H         H         1.0       0.6908004747855268  0.03062962901637945           0.8174191738628194 1.0000   
         H         H         1.0       0.6640792179428416  0.03157999182029658           0.839341115393537  1.0000   
         C         C         1.0       0.608436152400805   0.18705936060520717           0.94474761751026   1.0000   
         C         C         1.0       0.6244663253360105  0.16626751848293042           0.9498773727334718 1.0000   
         H         H         1.0       0.6131508705804727  0.20255420971372481           0.9610140220196383 1.0000   
         H         H         1.0       0.580072086136021   0.17250983197290717           0.9436135396190857 1.0000   
         H         H         1.0       0.610230963931673   0.14977755012904836           0.965099455344482  1.0000   
         H         H         1.0       0.6133160067755904  0.14746011282070196           0.9348622864559849 1.0000   
         C         C         1.0       0.9547939843265426  0.28381470146387333           0.8492973290697828 1.0000   
         C         C         1.0       0.9266187192215957  0.26744109920814757           0.8281889129366701 1.0000   
         H         H         1.0       0.9429242144219414  0.2857284240045387  0.8668097741935801 1.0000   
         H         H         1.0       0.9741478963079577  0.31095426367793294           0.8463477780686185 1.0000   
         H         H         1.0       0.9380274199927728  0.26686046673168423           0.8102764676061063 1.0000   
         H         H         1.0       0.9185602383985689  0.2841856609359227  0.8234963157361392 1.0000   
         C         C         1.0       0.0047130780943327455         0.5276447944205702 0.09679824210117356          1.0000   
         C         C         1.0       0.01621192019856399           0.5633230891752551 0.10258309919572538          1.0000   
         H         H         1.0       0.028465790761969423          0.528146688505371  0.0896449559365027 1.0000   
         H         H         1.0       0.9846321637560167  0.5156503044027914  0.08076551267039989          1.0000   
         H         H         1.0       0.04246677276171362           0.5783901304594323 0.10957990409530348          1.0000   
         H         H         1.0       0.016953777508482704          0.5714185230426079 0.08422872054026677          1.0000   
         C         C         1.0       0.9737734922867535  0.33157154051897686           0.31665087788695234          1.0000   
         C         C         1.0       0.9449770057916396  0.2942226058037599  0.3134444666167578 1.0000   
         H         H         1.0       0.9979483023016325  0.33689766815419403           0.32511648351369954          1.0000   
         H         H         1.0       0.9640977287727873  0.3404838849879069  0.3298269054551942 1.0000   
         H         H         1.0       0.9204478322988531  0.2916540274013756  0.3077717131724821 1.0000   
         H         H         1.0       0.939294119438384   0.28542874153315756           0.3319942861678164 1.0000   
         C         C         1.0       0.5832657977158662  0.5151746893716664  0.17941515767848717          1.0000   
         C         C         1.0       0.1564470045566373  0.5560938277413635  0.2596657108745974 1.0000   
         H         H         1.0       0.6028665189265384  0.5415781813854846  0.18464925126474538          1.0000   
         H         H         1.0       0.5778296094510863  0.5132409993340935  0.15967219021186294          1.0000   
         H         H         1.0       0.156953920120388   0.576109429188775   0.25141256442915183          1.0000   
         H         H         1.0       0.16613892568859012           0.5657222028551475 0.27816632290912596          1.0000   
         C         C         1.0       0.6273877534602325  0.3390324719518319  0.14694711083676984          1.0000   
         C         C         1.0       0.11777956650013932           0.31837958784474707          0.2276536947318815 1.0000   
         H         H         1.0       0.6038399701574881  0.3215525299739068  0.13517212330922132          1.0000   
         H         H         1.0       0.6501908769244721  0.3566131821450496  0.1343439376687174 1.0000   
         H         H         1.0       0.11718113502100724           0.30674054199582657          0.20923898343886294          1.0000   
         H         H         1.0       0.11898044470877145           0.34088482280579413          0.22074752251420746          1.0000   
         C         C         1.0       0.7755823912028753  0.3884527206298549  0.17373052138098266          1.0000   
         C         C         1.0       0.7890853816910935  0.41367758645535235           0.15280915301177003          1.0000   
         H         H         1.0       0.7983494406746656  0.39008169637157325           0.18102057147438855          1.0000   
         H         H         1.0       0.7586370430474314  0.3626861088747637  0.16766049078572295          1.0000   
         H         H         1.0       0.7919790658735204  0.4013080629934253  0.13544871921671778          1.0000   
         H         H         1.0       0.770206725436023   0.41915888804618207           0.14692757520195998          1.0000   
         C         C         1.0       0.7834635259703304  0.547300113947969   0.32541545426459034          1.0000   
         C         C         1.0       0.7953620474899916  0.5236935239715359  0.32518520906431586          1.0000   
         H         H         1.0       0.8016869865114705  0.5709935203862218  0.3159498185154412 1.0000   
         H         H         1.0       0.7596370621365103  0.5382997570630959  0.3142395895601355 1.0000   
         H         H         1.0       0.7991744519885237  0.5165715625219266  0.3437960811429782 1.0000   
         H         H         1.0       0.8228713300581795  0.5386029506486836  0.3190356039065144 1.0000   
         C         C         1.0       0.9387425114254849  0.4054184888750165  0.4821581119440965 1.0000   
         C         C         1.0       0.9773728264743656  0.43307198975925354           0.48768961204752787          1.0000   
         H         H         1.0       0.9270137758156981  0.38982840872495067           0.49884598500467225          1.0000   
         H         H         1.0       0.9261954798332143  0.4191373358373739  0.4808886389001867 1.0000   
         H         H         1.0       0.9785758337206115  0.45058376677439826           0.5007265490595889 1.0000   
         H         H         1.0       0.9923225747618128  0.45067977979183776           0.4716928482949082 1.0000   
         C         C         1.0       0.9635924399111037  0.5157317219943026  0.2703499955139598 1.0000   
         C         C         1.0       0.9658251905665214  0.4856373363947058  0.2736026935708031 1.0000   
         H         H         1.0       0.9489726745048571  0.5171881455774491  0.28589693729122445          1.0000   
         H         H         1.0       0.9913292883628401  0.5385250666607441  0.27208153322860423          1.0000   
         H         H         1.0       0.9872982278232287  0.48901318553332684           0.2864984955841808 1.0000   
         H         H         1.0       0.9700081344369734  0.47927839209580325           0.2563841235719281 1.0000   
         C         C         1.0       0.0558607437640839  0.4065322790340393  0.36344227616166747          1.0000   
         C         C         1.0       0.07171752939110898           0.4349822196789406 0.34443035640361663          1.0000   
         H         H         1.0       0.07008631573873059           0.41609914608272297          0.38118537651641904          1.0000   
         H         H         1.0       0.06127882414360464           0.3876320177652071 0.35900483099361646          1.0000   
         H         H         1.0       0.05092794615949403           0.43012723732174074          0.33034072318529656          1.0000   
         H         H         1.0       0.07918714900076074           0.4574632590413277 0.35267182752733167          1.0000   
         C         C         1.0       0.7005649637664066  0.27604774774019936           0.264016353527665  1.0000   
         C         C         1.0       0.6730029769702248  0.27570517711050013           0.2796946939770929 1.0000   
         H         H         1.0       0.6988408511108326  0.28388042826899335           0.24470107989794224          1.0000   
         H         H         1.0       0.6927681624359313  0.25094819252272305           0.26320517784332587          1.0000   
         H         H         1.0       0.6485933235565249  0.2592527559805606  0.2695757138596042 1.0000   
         H         H         1.0       0.6710801947558438  0.2646497635713914  0.2977883988554404 1.0000   
         C         C         1.0       0.815282419778258   0.18844998165145063           0.38318516425237403          1.0000   
         C         C         1.0       0.7914122886146787  0.16900376590981014           0.4059567020887935 1.0000   
         H         H         1.0       0.8347730309650196  0.1809123278104946  0.3808455012170389 1.0000   
         H         H         1.0       0.7999368862700289  0.17943210695278894           0.3654149255586206 1.0000   
         H         H         1.0       0.766856488595572   0.14466755860077793           0.39886170444786323          1.0000   
         H         H         1.0       0.7783073919037423  0.18089414325603326           0.41347599071868346          1.0000   
         C         C         1.0       0.7701253945967473  0.42984323173532457           0.36208420555327503          1.0000   
         C         C         1.0       0.78548120416548    0.4381744427294716  0.38790139858180844          1.0000   
         H         H         1.0       0.7748587398489867  0.45190406568005526           0.3518850673506518 1.0000   
         H         H         1.0       0.7413511495404242  0.41455277852414885           0.3630632993760467 1.0000   
         H         H         1.0       0.7691843167362745  0.41322463926589076           0.39718045453119977          1.0000   
         H         H         1.0       0.8122011793101884  0.4440219299111914  0.3910622530453519 1.0000   
         C         C         1.0       0.058060729815000434          0.30990244006244566          0.9827151297398115 1.0000   
         C         C         1.0       0.07987213902846357           0.298240524556667  0.9709887485422051 1.0000   
         H         H         1.0       0.1605039195972766  0.6552517480057259  0.024158478319753485         1.0000   
         H         H         1.0       0.16599039977151242           0.662372635729321  0.9932957181239612 1.0000   
         H         H         1.0       0.10734546438067905           0.31980517021932364          0.9675493011015869 1.0000   
         H         H         1.0       0.08155105529156659           0.2841588293445869 0.9857792354143763 1.0000   
         C         C         1.0       0.8758018614858473  0.09135444037958784           0.9202568532715767 1.0000   
         C         C         1.0       0.8680563553546727  0.08088962591948334           0.9472846649539575 1.0000   
         H         H         1.0       0.8673109669647893  0.07003866843078588           0.9096992824064704 1.0000   
         H         H         1.0       0.9033619538748169  0.10876030133472014           0.918688912727946  1.0000   
         H         H         1.0       0.8400818249018296  0.06343736713339321           0.9503214672599222 1.0000   
         H         H         1.0       0.9892213186893604  0.6990269752581186  0.9245333888080256 1.0000   
         C         C         1.0       0.8477350226274672  0.38033255982806163           0.9317877209832742 1.0000   
         C         C         1.0       0.8644335113904258  0.3629949894672923  0.9233113152470003 1.0000   
         H         H         1.0       0.8498553089496884  0.3965663681421354  0.9162761423304111 1.0000   
         H         H         1.0       0.8186922167515983  0.36264696197530133           0.9345559869615874 1.0000   
         H         H         1.0       0.8905826708575411  0.3744357721716347  0.9330162000905141 1.0000   
         H         H         1.0       0.866982843020017   0.36506169878788397           0.9021838949403967 1.0000   
         C         C         1.0       0.9823772759564565  0.38893896568631353           0.06511093676817059          1.0000   
         C         C         1.0       0.0037206215056395653         0.42212257105121964          0.05315603259213186          1.0000   
         H         H         1.0       0.9993728644614092  0.3791561378024977  0.0638643668591854 1.0000   
         H         H         1.0       0.9604435919757546  0.37099084486606604           0.05365692287651935          1.0000   
         H         H         1.0       0.016937327185510442          0.42005513216783386          0.03649911430102026          1.0000   
         H         H         1.0       0.026240778636913653          0.44020091461183075          0.06524693337516596          1.0000   
         C         C         1.0       0.8913262154811817  0.13455381825758345           0.1768085856684496 1.0000   
         C         C         1.0       0.47165021034055304           0.09150757368270646          0.135363408658319  1.0000   
         H         H         1.0       0.8999916472126269  0.12356544609730163           0.16362898750815633          1.0000   
         H         H         1.0       0.8658360144893837  0.11380794023871417           0.18327867284369742          1.0000   
         H         H         1.0       0.46470836706584795           0.07020051211622147          0.123647786926676  1.0000   
         H         H         1.0       0.4446372023871319  0.08521907638812487           0.14026819574717575          1.0000   
         C         C         1.0       0.7228509953373375  0.18033587422861175           0.061977596815419034         1.0000   
         C         C         1.0       0.7597759186239266  0.18848477547848372           0.058383331643172554         1.0000   
         H         H         1.0       0.7096988163138339  0.1597641288048815  0.07552875169984574          1.0000   
         H         H         1.0       0.7039779304954823  0.16924436556807046           0.04620225802433553          1.0000   
         H         H         1.0       0.7613617121167006  0.1667439484039914  0.062044233524649606         1.0000   
         H         H         1.0       0.7762322205622093  0.20429593222621656           0.07461842555008769          1.0000   
         C         C         1.0       0.8719911041316132  0.2589753417438227  0.06021366047752319          1.0000   
         C         C         1.0       0.9068226440921706  0.2949513957135746  0.06068723733359138          1.0000   
         H         H         1.0       0.8623343016586358  0.25165534604860473           0.07867722515043463          1.0000   
         H         H         1.0       0.8514200565283901  0.2579442400161763  0.05054295448733015          1.0000   
         H         H         1.0       0.904522394876957   0.3110786906002804  0.07353722928492168          1.0000   
         H         H         1.0       0.9150449425198032  0.30559061946429755           0.042590769415294494         1.0000   
         C         C         1.0       0.7695054501599567  0.41637035059802385           0.06634174737633014          1.0000   
         C         C         1.0       0.8047689560636843  0.4456465041119628  0.0762221528590934 1.0000   
         H         H         1.0       0.7716022840879248  0.4153196201150056  0.04640121343075565          1.0000   
         H         H         1.0       0.7502161678962384  0.42242922482119266           0.06943521281360487          1.0000   
         H         H         1.0       0.8107698756167295  0.4426822693866145  0.09507931956240623          1.0000   
         H         H         1.0       0.8046253469286436  0.46740230962627993           0.07425824351984556          1.0000   
         C         C         1.0       0.5441392506172942  0.3453722064195059  0.09858484346251853          1.0000   
         C         C         1.0       0.5185391096440494  0.3067684904929325  0.1021305945249348 1.0000   
         H         H         1.0       0.5694819778860809  0.35531563440540853           0.10795683964657102          1.0000   
         H         H         1.0       0.5501644227263375  0.3521042832366876  0.07942212246991166          1.0000   
         H         H         1.0       0.4975719854749071  0.2996175708949194  0.08867898010590293          1.0000   
         H         H         1.0       0.5065934080520098  0.3014619532483387  0.11916936678860374          1.0000   
         C         C         1.0       0.775232661709405   0.3035085831665746  0.20066452162679965          1.0000   
         C         C         1.0       0.8074186613650763  0.33817796364174935           0.20807341293934029          1.0000   
         H         H         1.0       0.7826454278158451  0.2848702690987136  0.1993439683376127 1.0000   
         H         H         1.0       0.7555032808450834  0.29428688476235254           0.2158665440945592 1.0000   
         H         H         1.0       0.8150013482440005  0.3362038542496469  0.22675929336149014          1.0000   
         H         H         1.0       0.7987143302452873  0.3549598357518521  0.20973802659373658          1.0000   
         C         C         1.0       0.6571511356843103  0.8189379483540787  0.12837916531379132          1.0000   
         C         C         1.0       0.6663331250314298  0.7966325599780861  0.1300384232650066 1.0000   
         C         C         1.0       0.6470068500529129  0.7673210876244789  0.11809594993028395          1.0000   
         C         C         1.0       0.6217411811403968  0.76128687707676    0.10100420517721302          1.0000   
         C         C         1.0       0.6140504011981056  0.7840896176769706  0.09803844231460657          1.0000   
         C         C         1.0       0.6313042687848144  0.812978452390402   0.11227488196443747          1.0000   
         H         H         1.0       0.6880366854897279  0.8012029897814403  0.14049770669403183          1.0000   
         H         H         1.0       0.6529450049911631  0.7498941586571372  0.1222321776931689 1.0000   
         H         H         1.0       0.5952932274844384  0.7785236833950566  0.08381184570731448          1.0000   
         H         H         1.0       0.6213660372232636  0.8289156582621955  0.11193908678077547          1.0000   
         C         C         1.0       0.050641123032015845          0.7908346664686439 0.08172101066049486          1.0000   
         C         C         1.0       0.5621890769823183  0.7168570916653426  0.07707620456544984          1.0000   
         C         C         1.0       0.547028305967322   0.7040085175236857  0.05405107771338313          1.0000   
         C         C         1.0       0.04435266075585109           0.7735515130374525 0.03270543660343295          1.0000   
         C         C         1.0       0.015520446306016122          0.7598593102220063 0.04656156699495839          1.0000   
         C         C         1.0       0.01768160250305617           0.7701633673522251 0.07035566217139833          1.0000   
         C         C         1.0       0.5998477124328959  0.7277858551539113  0.08400125843173334          1.0000   
         C         C         1.0       0.5898976484614002  0.6942078697618996  0.09783975261125254          1.0000   
         C         C         1.0       0.5842201911675936  0.6691912489530444  0.08292987136396168          1.0000   
         C         C         1.0       0.5779584686495297  0.6414003765037433  0.09283128447358324          1.0000   
         C         C         1.0       0.574625658110661   0.636387778127572   0.11825858829389885          1.0000   
         C         C         1.0       0.5770101043469511  0.6597797233392254  0.13321228032111568          1.0000   
         C         C         1.0       0.5852683727187346  0.6886644978338458  0.12281073886939518          1.0000   
         C         C         1.0       0.6311500720777201  0.7591714932975147  0.044843076224941436         1.0000   
         C         C         1.0       0.66109649312902    0.7758346897110634  0.02990552479046582          1.0000   
         C         C         1.0       0.6915193884647105  0.7774978511490876  0.03540803803821313          1.0000   
         C         C         1.0       0.6876164718458603  0.7550686348839492  0.053211655800996516         1.0000   
         C         C         1.0       0.6568444199548586  0.7352754369967345  0.0657189279008823 1.0000   
         C         C         1.0       0.6298066128014445  0.7402482972227211  0.06373795751595979          1.0000   
         C         C         1.0       0.7265425203390224  0.8017003006081149  0.022203431761219417         1.0000   
         C         C         1.0       0.7120491908935401  0.755717416701835   0.9510372359810922 1.0000   
         C         C         1.0       0.7045283859619967  0.7791894657323519  0.9536826905437501 1.0000   
         C         C         1.0       0.7048397113959571  0.7906233242698103  0.9765957957554157 1.0000   
         C         C         1.0       0.7154045299288985  0.7813393775693458  0.9972009892834904 1.0000   
         C         C         1.0       0.7215745758384194  0.7571383480575482  0.9939997284689719 1.0000   
         C         C         1.0       0.7212567914459342  0.744796554787369   0.9715050808663606 1.0000   
         C         C         1.0       0.7623142271751564  0.8097146801321142  0.034047018229103276         1.0000   
         C         C         1.0       0.7702122481097224  0.8156042730321481  0.05846253174898597          1.0000   
         C         C         1.0       0.8005003766196592  0.8225298553013037  0.06810441823378266          1.0000   
         C         C         1.0       0.8251850064583844  0.8257158100601675  0.05214698710089483          1.0000   
         C         C         1.0       0.8198388679227182  0.8227273513223926  0.02706845134345004          1.0000   
         C         C         1.0       0.7907844440586214  0.8183097820439987  0.018303908618532594         1.0000   
         C         C         1.0       0.7559838141188799  0.8611458922738633  0.005296511434564444         1.0000   
         C         C         1.0       0.769713924296902   0.8944988853333088  0.008289276281585378         1.0000   
         C         C         1.0       0.7650262418680106  0.905708000447794   0.029672966811018275         1.0000   
         C         C         1.0       0.7456000394595054  0.8824589074178111  0.04826368335960729          1.0000   
         C         C         1.0       0.7309098553625888  0.850354953688695   0.04454960476090086          1.0000   
         C         C         1.0       0.7350613045502552  0.8384381100587185  0.023105355149608986         1.0000   
         H         H         1.0       0.05180427733618642           0.7940674534793248 0.10174704836041437          1.0000   
         H         H         1.0       0.5620534009968102  0.7046497175495209  0.038817535931214175         1.0000   
         H         H         1.0       0.5003845400358934  0.6792770096247733  0.03367602161008376          1.0000   
         H         H         1.0       0.9939592297807653  0.7624707782864037  0.08239497961905351          1.0000   
         H         H         1.0       0.582080758177697   0.6688744992452215  0.06371931151176446          1.0000   
         H         H         1.0       0.5750222239771041  0.6225239073715798  0.08097760808766696          1.0000   
         H         H         1.0       0.08843071936804892           0.7254562578570004 0.13512865115593298          1.0000   
         H         H         1.0       0.09204856035249254           0.7756851298415066 0.12599915724287306          1.0000   
         H         H         1.0       0.614924946691759   0.7681785148095758  0.045215972025658635         1.0000   
         H         H         1.0       0.6637028686855427  0.7941603725616876  0.01710663543042812          1.0000   
         H         H         1.0       0.707447068246073   0.7512707713448988  0.0560356610526287 1.0000   
         H         H         1.0       0.6598085111071815  0.7193237038765418  0.07888679565380176          1.0000   
         H         H         1.0       0.6990794496221977  0.7895671362582116  0.9390221195262958 1.0000   
         H         H         1.0       0.7010427501531441  0.8103993596694387  0.9777538696466328 1.0000   
         H         H         1.0       0.7311076182384963  0.7495055758147118  0.010218078610282122         1.0000   
         H         H         1.0       0.7272503388580149  0.726295346148107   0.9693230295925386 1.0000   
         H         H         1.0       0.7535010107401042  0.8167897187275263  0.0711954546337028 1.0000   
         H         H         1.0       0.8070429270637083  0.8255251114497744  0.08773768408173456          1.0000   
         H         H         1.0       0.8392274584359694  0.8256913542523937  0.013648814905770523         1.0000   
         H         H         1.0       0.7855799920086527  0.8123040748965049  0.9986352192254989 1.0000   
         H         H         1.0       0.7586991706435553  0.8534083108016641  0.9878000464732773 1.0000   
         H         H         1.0       0.7845491965930843  0.911731297658595   0.9935749370999474 1.0000   
         H         H         1.0       0.740737125635598   0.8895151775296153  0.06460348082557799          1.0000   
         H         H         1.0       0.7195697687605982  0.8344471311642835  0.06065485111103075          1.0000   
         C         C         1.0       0.9772099862320222  0.659954437330006   0.9487823120235616 1.0000   
         C         C         1.0       0.916701274561787   0.13572698252771676           0.9640789544236384 1.0000   
         C         C         1.0       0.930816996841985   0.16308225991134173           0.9791960869709541 1.0000   
         C         C         1.0       0.9101630343659773  0.16551723616627712           0.9953640641622952 1.0000   
         C         C         1.0       0.9620750532961807  0.6095232598470869  0.9681159958970653 1.0000   
         C         C         1.0       0.9519705728105298  0.6271422798900413  0.954711538037081  1.0000   
         H         H         1.0       0.9348458755067519  0.13617118908725834           0.9515846574420559 1.0000   
         H         H         1.0       0.9581363133391468  0.18136970031540622           0.9797324084596446 1.0000   
         H         H         1.0       0.943479182965863   0.583976479843552   0.9739916303913956 1.0000   
         H         H         1.0       0.9256369415390219  0.6159698758654291  0.9494565649023867 1.0000   
         C         C         1.0       0.9597567799050767  0.6212717359607853  0.029239672607001665         1.0000   
         C         C         1.0       0.9940430385022051  0.6325669057996918  0.022771003094844033         1.0000   
         C         C         1.0       0.020773160669807167          0.6649560771637129 0.028620435773333286         1.0000   
         C         C         1.0       0.012583111647477274          0.6850517170235846 0.039382005343918225         1.0000   
         C         C         1.0       0.9790934350053904  0.6747079084044676  0.04472395612427871          1.0000   
         C         C         1.0       0.952620513142581   0.640729692590283   0.04026120939498301          1.0000   
         C         C         1.0       0.9262985677221388  0.1904699273036199  0.018591308794017714         1.0000   
         C         C         1.0       0.9600607246251214  0.22664901322657682           0.01097180719598323          1.0000   
         C         C         1.0       0.988464920674931   0.24299636580626194           0.025566668647838853         1.0000   
         C         C         1.0       0.019414132998265776          0.26996094053132813          0.017980794137335776         1.0000   
         C         C         1.0       0.11455823913161423           0.6470391753594822 0.008779066804425417         1.0000   
         C         C         1.0       0.09580025287356841           0.6400562091347102 0.02988786599378046          1.0000   
         C         C         1.0       0.06080190741056124           0.6283785799395875 0.02830652034940706          1.0000   
         C         C         1.0       0.9061597221744445  0.14420580041032083           0.051120318000844156         1.0000   
         C         C         1.0       0.9084857303793518  0.12089453923074345           0.06347857245422706          1.0000   
         C         C         1.0       0.9367100483563756  0.11930563158669161           0.06045676361095742          1.0000   
         C         C         1.0       0.9634397604162099  0.14327414662660098           0.045582097043110226         1.0000   
         C         C         1.0       0.9612400387216041  0.16680438146524712           0.03411292939222488          1.0000   
         C         C         1.0       0.9321501262952334  0.16775979324070267           0.0361953077891608 1.0000   
         C         C         1.0       0.9330515160232447  0.08656601268278119           0.06918868137244982          1.0000   
         C         C         1.0       0.0007206549254465955         0.11456310904401201          0.13474686226634347          1.0000   
         C         C         1.0       0.9649609994341044  0.09790253167672769           0.13711067677344602          1.0000   
         C         C         1.0       0.9429058698721122  0.09063466006460219           0.11587385901938418          1.0000   
         C         C         1.0       0.9579454882503385  0.10138957836979134           0.09297019020090946          1.0000   
         C         C         1.0       0.9940369494735336  0.12130257616925078           0.09198862610995406          1.0000   
         C         C         1.0       0.014644442197550678          0.12808085645262746          0.11333963501670974          1.0000   
         C         C         1.0       0.9500582355191216  0.07459378759913382           0.04956951131136722          1.0000   
         C         C         1.0       0.9396012171690123  0.07273571029126402           0.02535352101466004          1.0000   
         C         C         1.0       0.9379528079302968  0.051472553699737134         0.009792440494210686         1.0000   
         C         C         1.0       0.9505731822457424  0.031973939685741914         0.0166148546154945 1.0000   
         C         C         1.0       0.9665706780770301  0.03826784643899783           0.03978491902281034          1.0000   
         C         C         1.0       0.9660797014920256  0.05908476597268675           0.05576682611609929          1.0000   
         C         C         1.0       0.8913661532857567  0.025416784876098664         0.08340253356986693          1.0000   
         C         C         1.0       0.8618206149893282  0.9948004507362833  0.08055985837913604          1.0000   
         C         C         1.0       0.837239373103546   0.9899199276901514  0.06359659819067964          1.0000   
         C         C         1.0       0.8408424508057003  0.014763979601135402         0.04967626182897056          1.0000   
         C         C         1.0       0.8699694426914366  0.04543263165013034           0.05324637983696112          1.0000   
         C         C         1.0       0.8958428247765718  0.051760711810227455         0.07012785274976507          1.0000   
         H         H         1.0       0.9380356112809289  0.5967798343876828  0.024051758158213588         1.0000   
         H         H         1.0       0.9107427991834615  0.1957974001354461  0.06775333641162451          1.0000   
         H         H         1.0       0.0344506896865715  0.7101406330836655  0.04493016551714324          1.0000   
         H         H         1.0       0.9260685356135483  0.6327714911528662  0.04293784124729294          1.0000   
         H         H         1.0       0.986674054540296   0.23432567692448458           0.0434776571459774 1.0000   
         H         H         1.0       0.04205135863391063           0.2824381628698944 0.02951509159623167          1.0000   
         H         H         1.0       0.10675867342571466           0.6440777310533358 0.04777930455333812          1.0000   
         H         H         1.0       0.04756786230252885           0.6261223528793379 0.0449711278121554 1.0000   
         H         H         1.0       0.8798776501435128  0.13959906217161322           0.05049978307185632          1.0000   
         H         H         1.0       0.8887114936203129  0.10341512322337065           0.0746930815796607 1.0000   
         H         H         1.0       0.983544401078465   0.14078284369072547           0.03796864927913579          1.0000   
         H         H         1.0       0.9812167480198677  0.18427215141969566           0.022501598408077195         1.0000   
         H         H         1.0       0.9566898779454623  0.09084509963719256           0.15499916393690238          1.0000   
         H         H         1.0       0.915250562484624   0.07522049811308662           0.11971717761617784          1.0000   
         H         H         1.0       0.005798509720642331          0.13376462270742961          0.07505743823594235          1.0000   
         H         H         1.0       0.042262173568208494          0.1448294454915462 0.11172064305539231          1.0000   
         H         H         1.0       0.9218581910633596  0.07990018510818842           0.019497698099326  1.0000   
         H         H         1.0       0.9239990672016999  0.04886836558467533           0.993232200938264  1.0000   
         H         H         1.0       0.9801864516893848  0.02826287865095245           0.0460396391992115 1.0000   
         H         H         1.0       0.9796876615766398  0.06483215279515786           0.07238922403969994          1.0000   
         H         H         1.0       0.9110008864002327  0.029544469113763183         0.09759207459055186          1.0000   
         H         H         1.0       0.8579470736484235  0.975540943518008   0.09181930188601095          1.0000   
         H         H         1.0       0.8227948048321458  0.01042831062478844           0.035145202385391316         1.0000   
         H         H         1.0       0.8752944344093031  0.0656687177374371  0.042144868899386845         1.0000   
         C         C         1.0       0.9496103540086144  0.8291524254662047  0.4718263222599708 1.0000   
         C         C         1.0       0.9711473091432435  0.8598641119826023  0.4841932107783121 1.0000   
         C         C         1.0       0.006310895153667895          0.8791710532808631 0.47915246925283417          1.0000   
         C         C         1.0       0.02114655730660031           0.8714794542459539 0.46098062940917384          1.0000   
         C         C         1.0       0.9988921836993138  0.8438298684562215  0.44674603347050035          1.0000   
         C         C         1.0       0.9644416200534084  0.8224231805913049  0.45286358189384585          1.0000   
         H         H         1.0       0.961100093505586   0.8678599103217073  0.49822603131101495          1.0000   
         H         H         1.0       0.021486481054406426          0.9034098608189534 0.4875686839922002 1.0000   
         H         H         1.0       0.009084453974201212          0.835829079455441  0.4338848543200421 1.0000   
         H         H         1.0       0.9488629749772708  0.800608180037347   0.4429001904238237 1.0000   
         C         C         1.0       0.07642288369167738           0.8592857538572313 0.454286630265577  1.0000   
         C         C         1.0       0.07953109529058411           0.8842796759586851 0.44077734714167777          1.0000   
         C         C         1.0       0.1046002448951091  0.8989434754018515  0.4227624657431764 1.0000   
         C         C         1.0       0.12660915735726275           0.8888431948918546 0.4186630384129306 1.0000   
         C         C         1.0       0.12247363675464151           0.8625665993876026 0.4311681399097341 1.0000   
         C         C         1.0       0.09636415459792369           0.8480112272160657 0.4495749731231316 1.0000   
         C         C         1.0       0.06075848223229796           0.9005201183525829 0.4521540933253267 1.0000   
         C         C         1.0       0.09042862710623445           0.9262566084807344 0.471409241385035  1.0000   
         C         C         1.0       0.11960559937448223           0.9550849103205635 0.4623341327634832 1.0000   
         C         C         1.0       0.1489916043442474  0.9737874536598313  0.4763222901194263 1.0000   
         C         C         1.0       0.14801226558188962           0.9668727264005615 0.5003868540723901 1.0000   
         C         C         1.0       0.11799425847856293           0.9403054784723092 0.5111272812293486 1.0000   
         C         C         1.0       0.08967585210922313           0.9191480718806582 0.49645884368584536          1.0000   
         C         C         1.0       0.037256661862845375          0.9069799815981731 0.40870647000789945          1.0000   
         C         C         1.0       0.019323934771352302          0.9164040103468569 0.3949671819854887 1.0000   
         C         C         1.0       0.006137202125466867          0.9318174259755362 0.4068030852324629 1.0000   
         C         C         1.0       0.02290157538856641           0.9481924899690748 0.4280349038456208 1.0000   
         C         C         1.0       0.04491583480629768           0.942674407705228  0.44101374979039776          1.0000   
         C         C         1.0       0.04843522551306534           0.917429147304171  0.4329312304994343 1.0000   
         C         C         1.0       0.9716311740877486  0.927828700441903   0.39652129200125974          1.0000   
         C         C         1.0       0.01785775182823235           0.994041472514714  0.3343364052067804 1.0000   
         C         C         1.0       0.9947623384903113  0.9615178672947957  0.33118065472861596          1.0000   
         C         C         1.0       0.9781979218057448  0.940495573164812   0.34995939304417784          1.0000   
         C         C         1.0       0.9823614874975658  0.9518462300771049  0.3737861697249653 1.0000   
         C         C         1.0       0.006162214069894034          0.9855193467580236 0.3769750611457956 1.0000   
         C         C         1.0       0.022705929583955342          0.007074535849058261         0.3579161185013753 1.0000   
         C         C         1.0       0.9525987342553793  0.9324231813489154  0.4182570834923609 1.0000   
         C         C         1.0       0.9443787020774511  0.9144771705375231  0.44007486922261974          1.0000   
         C         C         1.0       0.921656506219315   0.912854452811551   0.4567127016012264 1.0000   
         C         C         1.0       0.9060822993631842  0.9293241892342037  0.4512995637624209 1.0000   
         C         C         1.0       0.9179398847965383  0.9516564682554619  0.43284977265361296          1.0000   
         C         C         1.0       0.939096270917863   0.9520197239266911  0.4152915528789431 1.0000   
         C         C         1.0       0.9105046226699846  0.8833779461494401  0.3787121158319174 1.0000   
         C         C         1.0       0.8819551352555823  0.8515935043390351  0.377238419659484  1.0000   
         C         C         1.0       0.8843250173814277  0.8254619154377247  0.3853308408907204 1.0000   
         C         C         1.0       0.914235457406999   0.8344736192912761  0.39770696359442437          1.0000   
         C         C         1.0       0.9421238900764347  0.8659484347691435  0.39983221069223207          1.0000   
         C         C         1.0       0.9412655261533059  0.8911397211488657  0.3899585960805193 1.0000   
         H         H         1.0       0.05444357541624201           0.8460919355766354 0.4678997184225095 1.0000   
         H         H         1.0       0.11334576586544287           0.9220186110833894 0.41470315421414544          1.0000   
         H         H         1.0       0.1450963584926277  0.9010601228283691  0.4025893357284372 1.0000   
         H         H         1.0       0.09352338384801473           0.8283169500913039 0.4613330450431256 1.0000   
         H         H         1.0       0.12055160917409746           0.9601998434157991 0.44312907277816405          1.0000   
         H         H         1.0       0.16820609683006205           0.996165490830646  0.4676481174386815 1.0000   
         H         H         1.0       0.11870704305066493           0.9340245466691367 0.529862628982352  1.0000   
         H         H         1.0       0.06849531001857034           0.8972584069188942 0.5030505615297658 1.0000   
         H         H         1.0       0.04054223530628831           0.8887446170208759 0.40024899284027554          1.0000   
         H         H         1.0       0.008995860816372714          0.904935594927182  0.37794941488941414          1.0000   
         H         H         1.0       0.01989128200546708           0.9664646873882087 0.43705501778343514          1.0000   
         H         H         1.0       0.05298770341358483           0.9519986074257915 0.4598387792420906 1.0000   
         H         H         1.0       0.9908908901462242  0.9522905734261607  0.3123222153917479 1.0000   
         H         H         1.0       0.9614103804724927  0.9141128407139236  0.3459009827316425 1.0000   
         H         H         1.0       0.01521399815481228           0.9950245657768895 0.3956983837749514 1.0000   
         H         H         1.0       0.040828154340923906          0.032302290170578285         0.3630083299155588 1.0000   
         H         H         1.0       0.9526872134242443  0.8988312692545657  0.44047261036233165          1.0000   
         H         H         1.0       0.9144607994411204  0.8973750675301216  0.4725375720603629 1.0000   
         H         H         1.0       0.9090178865345245  0.9670609200860908  0.4282566666070245 1.0000   
         H         H         1.0       0.9448597936171753  0.9656604549017355  0.3981146486422204 1.0000   
         H         H         1.0       0.9108325954330223  0.9043375282889986  0.3708854182976882 1.0000   
         H         H         1.0       0.857757573253105   0.8465871024039702  0.3720745979500485 1.0000   
         H         H         1.0       0.9154533560216274  0.8169367290768184  0.4092992488806384 1.0000   
         H         H         1.0       0.9618271277179906  0.8684220814315985  0.4131125396322034 1.0000   
         C         C         1.0       0.5736774015740687  0.712043528163705   0.30612609941861324          1.0000   
         C         C         1.0       0.6061677805558503  0.7357330652828191  0.29747100311001534          1.0000   
         C         C         1.0       0.6250324285661084  0.7650512236367535  0.3085384773883986 1.0000   
         C         C         1.0       0.6144989508610329  0.7723157962010004  0.3295757347001906 1.0000   
         C         C         1.0       0.5842240393393391  0.7471904184379498  0.3404121482856242 1.0000   
         C         C         1.0       0.5630400719082915  0.719169565570355   0.32690505868553577          1.0000   
         H         H         1.0       0.6162609321420827  0.7295395974258087  0.2831722174871982 1.0000   
         H         H         1.0       0.650662616543581   0.7837391065710893  0.3006934100119039 1.0000   
         H         H         1.0       0.5778314018883849  0.7498797023641393  0.35860259320401133          1.0000   
         H         H         1.0       0.5380173948442806  0.7020403116168638  0.33568318831133775          1.0000   
         C         C         1.0       0.15142891595738273           0.8449015615462743 0.33878305896711625          1.0000   
         C         C         1.0       0.6199682960795881  0.8146416763504263  0.3620249130988168 1.0000   
         C         C         1.0       0.6358296491019652  0.8301625304555492  0.38426344680606234          1.0000   
         C         C         1.0       0.10604495376130463           0.8424506399808898 0.37111770244233366          1.0000   
         C         C         1.0       0.12184876155481694           0.8270556804801807 0.3771812376265934 1.0000   
         C         C         1.0       0.14374883089894563           0.8275622246018173 0.36060029490711026          1.0000   
         C         C         1.0       0.6390116363166042  0.8093187745083628  0.34008273800530364          1.0000   
         C         C         1.0       0.6437710479791423  0.8371896641464998  0.3218448151028224 1.0000   
         C         C         1.0       0.6643689154539163  0.8717271853826534  0.3278975495291579 1.0000   
         C         C         1.0       0.6630930072271705  0.8935148177588124  0.31340379820522285          1.0000   
         C         C         1.0       0.6456694933646612  0.8841332875847248  0.2915489755344001 1.0000   
         C         C         1.0       0.629752278602113   0.85169717856322    0.2835961150866602 1.0000   
         C         C         1.0       0.627957516793757   0.8284567441114089  0.29893416810314716          1.0000   
         C         C         1.0       0.6697738827764261  0.7932845143559537  0.3703887698312869 1.0000   
         C         C         1.0       0.6983475300639982  0.8005280422012868  0.3844378712313132 1.0000   
         C         C         1.0       0.7312531363032801  0.8275988235834534  0.3771615695884369 1.0000   
         C         C         1.0       0.7337638915002317  0.8424760647261359  0.3540556221090041 1.0000   
         C         C         1.0       0.7048610069562564  0.8333368328324188  0.34070682846539224          1.0000   
         C         C         1.0       0.6723120361065618  0.8121778137854341  0.3504958275331173 1.0000   
         C         C         1.0       0.7627870451860722  0.8437063504484872  0.3967087939411245 1.0000   
         C         C         1.0       0.7113299398287881  0.8521631767546072  0.4593572639097536 1.0000   
         C         C         1.0       0.7216089567753522  0.8299343424788781  0.459976151953816  1.0000   
         C         C         1.0       0.7379740770541616  0.8271980169055959  0.44093356414990303          1.0000   
         C         C         1.0       0.7439413402331203  0.8465781308901871  0.42002614750570233          1.0000   
         C         C         1.0       0.7304105405422203  0.8651919708571894  0.41916167087531964          1.0000   
         C         C         1.0       0.7164582661982901  0.8699748328486042  0.43862801269739693          1.0000   
         C         C         1.0       0.7967783308793769  0.8803587046120702  0.3890613023089481 1.0000   
         C         C         1.0       0.8166020211482335  0.8847984030698849  0.368556031064339  1.0000   
         C         C         1.0       0.8451119633049959  0.9140850930770511  0.36253925721765734          1.0000   
         C         C         1.0       0.8567764468985906  0.9402503096156396  0.37704925354569047          1.0000   
         C         C         1.0       0.8394883011249645  0.9367648659281721  0.39790363167803244          1.0000   
         C         C         1.0       0.8110734132028335  0.9056470656490346  0.4052508111847056 1.0000   
         C         C         1.0       0.7688564577740438  0.7960004637169196  0.38514381103663486          1.0000   
         C         C         1.0       0.7820986135603651  0.7774460166382181  0.38893842828553987          1.0000   
         C         C         1.0       0.8056247077453071  0.7856251865992266  0.40719404340896503          1.0000   
         C         C         1.0       0.8178871663536528  0.813486432756143   0.4207790822414699 1.0000   
         C         C         1.0       0.8027276267076884  0.8307894766220938  0.41821102250998204          1.0000   
         C         C         1.0       0.777254552230982   0.8222207911242735  0.4002763849030664 1.0000   
         H         H         1.0       0.1659765615469897  0.8429239656618759  0.3252699585763822 1.0000   
         H         H         1.0       0.6608926774489178  0.8358970175746132  0.3884734232667046 1.0000   
         H         H         1.0       0.635676362719597   0.8472986830415814  0.4178282680357588 1.0000   
         H         H         1.0       0.1554621074615743  0.8139776358816467  0.36479058305638457          1.0000   
         H         H         1.0       0.6749296248860401  0.8782710059997341  0.3465881119875864 1.0000   
         H         H         1.0       0.6758988417980234  0.9184085396243603  0.3195124550797981 1.0000   
         H         H         1.0       0.6168563207912492  0.8468414168647622  0.26619470568871784          1.0000   
         H         H         1.0       0.6096111523967215  0.8032001427070833  0.2923341681144386 1.0000   
         H         H         1.0       0.6471640164094548  0.7761971382033102  0.37961530200431554          1.0000   
         H         H         1.0       0.69449955171754    0.7891136753092395  0.40152600630331486          1.0000   
         H         H         1.0       0.7584070205895406  0.8650768475550101  0.3474554758988583 1.0000   
         H         H         1.0       0.7078097870311807  0.8447327136571936  0.322760516406033  1.0000   
         H         H         1.0       0.7203844100107608  0.8183911876294468  0.4774963119074523 1.0000   
         H         H         1.0       0.7493722753329403  0.8133082689126876  0.4442892478049343 1.0000   
         H         H         1.0       0.7356599977097176  0.8817640928204727  0.4044882869130609 1.0000   
         H         H         1.0       0.7050243247328263  0.883604340447398   0.43855173728666746          1.0000   
         H         H         1.0       0.8074056358386157  0.8647433088049784  0.3551843029365632 1.0000   
         H         H         1.0       0.8596512877923341  0.9155125528014506  0.34778849801179607          1.0000   
         H         H         1.0       0.8506549300939759  0.9597716502930874  0.409811158084162  1.0000   
         H         H         1.0       0.8003826072571079  0.9027407671186436  0.42329779307941773          1.0000   
         H         H         1.0       0.753709219414532   0.7891979266683347  0.3684540934459189 1.0000   
         H         H         1.0       0.7755582775151364  0.7563001103658313  0.3771939191395122 1.0000   
         H         H         1.0       0.8390262305134246  0.822078337541293   0.4337654427993861 1.0000   
         H         H         1.0       0.8127248053223021  0.8523131808489023  0.4293401442337776 1.0000   
         C         C         1.0       0.8929980241605447  0.01675498616101989           0.3415610714781228 1.0000   
         C         C         1.0       0.8881316934979765  0.006366800301138564         0.3185367702278961 1.0000   
         C         C         1.0       0.9047719465891558  0.027542649821124865         0.29964441856423646          1.0000   
         C         C         1.0       0.9287864778082232  0.061508744484556566         0.30345852577996213          1.0000   
         C         C         1.0       0.9355217000584584  0.07197377085005074           0.3285065580921696 1.0000   
         C         C         1.0       0.9166043862743316  0.0498127156421706  0.3467881448570605 1.0000   
         H         H         1.0       0.8742345362762027  0.9788221262875924  0.3173013492060283 1.0000   
         H         H         1.0       0.9052125739200995  0.018285394473689598         0.2820267725770429 1.0000   
         H         H         1.0       0.9548028891471663  0.09733919142681446           0.33379655313307416          1.0000   
         H         H         1.0       0.9200402644849572  0.0585522421784721  0.365086094045072  1.0000   
         C         C         1.0       0.9024021596547203  0.06650606780524004           0.2533975469591533 1.0000   
         C         C         1.0       0.9363421313167778  0.07548466317334168           0.2559774924923537 1.0000   
         C         C         1.0       0.9533730372441797  0.0782663808988624  0.23516979065045696          1.0000   
         C         C         1.0       0.93419090770817    0.06368497604910672           0.2134569545601274 1.0000   
         C         C         1.0       0.8990389372089365  0.04883308828819266           0.21159032916983825          1.0000   
         C         C         1.0       0.8839070541607307  0.051076906674478284         0.2316410033939802 1.0000   
         C         C         1.0       0.954034004797599   0.08412725740477622           0.2823630706127724 1.0000   
         C         C         1.0       0.9835996478458509  0.07676947085255503           0.28496648320283097          1.0000   
         C         C         1.0       0.008649850590157326          0.09376780026820541          0.30384699457229464          1.0000   
         C         C         1.0       0.029044974380024513          0.08324697074291132          0.31098328648360607          1.0000   
         C         C         1.0       0.028547424925754905          0.05871702203940554          0.29832834301247635          1.0000   
         C         C         1.0       0.002503726097004222          0.04078867572502043          0.28179094526936693          1.0000   
         C         C         1.0       0.9791691297385494  0.04877934135436468           0.27454740049835913          1.0000   
         C         C         1.0       0.8992699345549509  0.5812628499527012  0.16311713028980304          1.0000   
         C         C         1.0       0.9068476872163329  0.6129140450777602  0.1612968768373499 1.0000   
         C         C         1.0       0.9368804510761718  0.6398467886104635  0.17233518494149744          1.0000   
         C         C         1.0       0.9508638764635919  0.632128109790622   0.191608098352568  1.0000   
         C         C         1.0       0.940572813792949   0.6011073692954558  0.19508052778178683          1.0000   
         C         C         1.0       0.9178209256462712  0.5750382010760504  0.17962873197596213          1.0000   
         C         C         1.0       0.9594605202467784  0.6749896171637674  0.15814029106464236          1.0000   
         C         C         1.0       0.02651077322254025           0.6560443960554769 0.11710551057361372          1.0000   
         C         C         1.0       0.9988542517646805  0.6527705885198094  0.10629011050667524          1.0000   
         C         C         1.0       0.976738202326143   0.6583056608328747  0.11901335102597202          1.0000   
         C         C         1.0       0.9860385788809629  0.6705846993655389  0.14290679325886574          1.0000   
         C         C         1.0       0.013757274761395433          0.6721267320461058 0.1538561494757608 1.0000   
         C         C         1.0       0.03301262635061053           0.6645194577793809 0.14168000355282315          1.0000   
         C         C         1.0       0.9820117496024172  0.7076099960172418  0.1759563794818691 1.0000   
         C         C         1.0       0.9714899806333537  0.7071492218070479  0.19982836185645178          1.0000   
         C         C         1.0       0.9917583166152415  0.7326784864886309  0.21470246247564898          1.0000   
         C         C         1.0       0.024185115860973827          0.759675527506095  0.20658309980933057          1.0000   
         C         C         1.0       0.03454998057536529           0.760804409982771  0.18238583931771854          1.0000   
         C         C         1.0       0.013485705715121199          0.7345669042926047 0.16795688429905647          1.0000   
         C         C         1.0       0.9484746074140361  0.7053330848465276  0.1233525763085504 1.0000   
         C         C         1.0       0.9305664280067273  0.7171765476003024  0.11527762342679798          1.0000   
         C         C         1.0       0.9013486733176207  0.7115981772011509  0.12773918495895145          1.0000   
         C         C         1.0       0.8875625078594167  0.6898255409450327  0.146544185748446  1.0000   
         C         C         1.0       0.9045758722319431  0.6753044442605378  0.1543526300092436 1.0000   
         C         C         1.0       0.9361312022047877  0.6842459864635783  0.144537037880904  1.0000   
         H         H         1.0       0.8900365497042023  0.06783851247502026           0.27047008327696154          1.0000   
         H         H         1.0       0.9817599203963245  0.09063733127639595           0.2341582577317795 1.0000   
         H         H         1.0       0.9464972047823856  0.0646600314503889  0.1956272343083135 1.0000   
         H         H         1.0       0.8569121793423405  0.04274055633868512           0.23284156691686997          1.0000   
         H         H         1.0       0.01313740722326906           0.11757420571178767          0.30953770788322116          1.0000   
         H         H         1.0       0.04973263293383301           0.09952006783906531          0.32405464650899957          1.0000   
         H         H         1.0       0.0005004488000841523         0.020772006978515778         0.27269875502914603          1.0000   
         H         H         1.0       0.9563867917469424  0.03179017414581775           0.2622781522899237 1.0000   
         H         H         1.0       0.923792953313262   0.11519913667943427           0.30264086951678976          1.0000   
         H         H         1.0       0.8975918848431987  0.6173889735371039  0.1439312993988698 1.0000   
         H         H         1.0       0.9744173016182233  0.6491397509119927  0.20224651715841394          1.0000   
         H         H         1.0       0.9523599155908992  0.5965456248999028  0.21074121165314993          1.0000   
         H         H         1.0       0.9930575224685728  0.6478940848958525  0.08658058493411458          1.0000   
         H         H         1.0       0.9528101574491824  0.6542501556591886  0.11141242033853126          1.0000   
         H         H         1.0       0.01702428177770754           0.674934073731627  0.17241655439356932          1.0000   
         H         H         1.0       0.5354331387524748  0.5882371951774958  0.1774173391755817 1.0000   
         H         H         1.0       0.9461296158535957  0.6862720425971222  0.20502045551844625          1.0000   
         H         H         1.0       0.9819958166739947  0.7353398683563241  0.2323666752290421 1.0000   
         H         H         1.0       0.057980153359592945          0.7841866439593764 0.17434353538952405          1.0000   
         H         H         1.0       0.020091074160637712          0.7336037574673073 0.15016166342004036          1.0000   
         H         H         1.0       0.9753842111350262  0.7151795587208927  0.11749747932102388          1.0000   
         H         H         1.0       0.9421335046650232  0.7352257877171571  0.10115288564454404          1.0000   
         H         H         1.0       0.8625206088413833  0.6807596673093368  0.15427879999725283          1.0000   
         H         H         1.0       0.8956793757524234  0.6605500482664666  0.17178759345362227          1.0000   
         C         C         1.0       0.9034459516060227  0.9021056026423327  0.07367859655476307          1.0000   
         C         C         1.0       0.9374589424064482  0.9295310897100452  0.07438609101980533          1.0000   
         C         C         1.0       0.9505255339939791  0.9500980646620834  0.0948562866205427 1.0000   
         C         C         1.0       0.929702822538822   0.9405917569595876  0.1158725658153024 1.0000   
         C         C         1.0       0.895732034534589   0.9141227157719731  0.11415490658555635          1.0000   
         C         C         1.0       0.8836155825963505  0.8953608853201346  0.09401783596748149          1.0000   
         H         H         1.0       0.9535157468407822  0.9357813684901286  0.058505211953491676         1.0000   
         H         H         1.0       0.9766218111189825  0.9706769282233457  0.0942046895342381 1.0000   
         H         H         1.0       0.8789571889383258  0.908343575721525   0.1291437627070947 1.0000   
         H         H         1.0       0.8557900422437749  0.8752837813413774  0.09362640928165256          1.0000   
         C         C         1.0       0.8997114955037281  0.9763826253841749  0.13909749910360103          1.0000   
         C         C         1.0       0.9186406672306136  0.9663683137373802  0.15311748016918642          1.0000   
         C         C         1.0       0.9166621260008073  0.9672984244417022  0.178100310245196  1.0000   
         C         C         1.0       0.8956397235713451  0.974897475514525   0.18913938619834378          1.0000   
         C         C         1.0       0.8769140101467187  0.9830899762965335  0.17557785377035257          1.0000   
         C         C         1.0       0.8780634848984803  0.9831609468535615  0.1499508822022039 1.0000   
         C         C         1.0       0.9456864716408373  0.9603872579647753  0.14085868237918908          1.0000   
         C         C         1.0       0.9784180039287451  0.9982542740676211  0.1404842977285719 1.0000   
         C         C         1.0       0.0018406001630471014         0.010937056776310072         0.15973580283675853          1.0000   
         C         C         1.0       0.026208742883042646          0.04426726385064894          0.16245057028638255          1.0000   
         C         C         1.0       0.02794066596909528           0.06587521518505457          0.14575743831507215          1.0000   
         C         C         1.0       0.009027810358487764          0.0534080252960516 0.12425426490786551          1.0000   
         C         C         1.0       0.9822990960355759  0.019613487398189244         0.1219653515863013 1.0000   
         C         C         1.0       0.9332290142923496  0.9110431881350213  0.1683036848973365 1.0000   
         C         C         1.0       0.9414324914598715  0.8893620734410423  0.17594539859273559          1.0000   
         C         C         1.0       0.9721731761526516  0.8923812570944263  0.16903474785583555          1.0000   
         C         C         1.0       0.9914221021742102  0.9155544499106116  0.15119488738905398          1.0000   
         C         C         1.0       0.9827360975491467  0.9369342159229822  0.14360105889846336          1.0000   
         C         C         1.0       0.9545164268783422  0.9357520761700573  0.15269596054894158          1.0000   
         C         C         1.0       0.9847047930809608  0.8728581927045812  0.18349746777119005          1.0000   
         C         C         1.0       0.00856927867713253           0.8991958892803059 0.26185712879965267          1.0000   
         C         C         1.0       0.9998220518029277  0.8691777791603024  0.25283088485724237          1.0000   
         C         C         1.0       0.9881833481278444  0.8587331260667933  0.22938206629239635          1.0000   
         C         C         1.0       0.9875161342978419  0.8792174990137251  0.21269129386053487          1.0000   
         C         C         1.0       0.9971909952175577  0.9105302480526698  0.22139992625710814          1.0000   
         C         C         1.0       0.0065209655195608285         0.9195265421187524 0.24548946069189806          1.0000   
         C         C         1.0       0.02207179541991433           0.8804900493051169 0.17973201551518286          1.0000   
         C         C         1.0       0.027817583787189237          0.8566693683977397 0.17888418583633464          1.0000   
         C         C         1.0       0.060677738472462384          0.86318476633061   0.17938638668837684          1.0000   
         C         C         1.0       0.0899130504344623  0.8948331180293039  0.18086147578838777          1.0000   
         C         C         1.0       0.08413295900106821           0.9199242551244954 0.18059528132583416          1.0000   
         C         C         1.0       0.05176370523722684           0.9130380419057775 0.17835726434928767          1.0000   
         C         C         1.0       0.924013187409952   0.8120589043207195  0.18512527530229111          1.0000   
         C         C         1.0       0.9003967371586175  0.7821418779917718  0.17641391277630594          1.0000   
         C         C         1.0       0.9054029557396237  0.7747237273115797  0.15234865771902653          1.0000   
         C         C         1.0       0.935270070808759   0.7972747777165711  0.14005892800563885          1.0000   
         C         C         1.0       0.9600828767265382  0.8276722484340504  0.15037280828376476          1.0000   
         C         C         1.0       0.9548315634538314  0.8357719354580526  0.17302882578115508          1.0000   
         H         H         1.0       0.9025026897004562  0.9790518394019044  0.1197117221597795 1.0000   
         H         H         1.0       0.9308396163939932  0.9613072563017542  0.19075884178905794          1.0000   
         H         H         1.0       0.8940156443798315  0.9751524723637665  0.20957996560228764          1.0000   
         H         H         1.0       0.8632350032106604  0.9906636044658559  0.13913095875990847          1.0000   
         H         H         1.0       0.9995935564488334  0.9939215386438683  0.17418719770110788          1.0000   
         H         H         1.0       0.03922964859680511           0.05095240646563015          0.1800422792849392 1.0000   
         H         H         1.0       0.006761565952533299          0.07087096910703328          0.11271443555295968          1.0000   
         H         H         1.0       0.9612834636751239  0.009931428682934618         0.10826808721287164          1.0000   
         H         H         1.0       0.9083721897844088  0.9057437742135647  0.1755374407943321 1.0000   
         H         H         1.0       0.9247553072521211  0.8709957041105536  0.19040418877581639          1.0000   
         H         H         1.0       0.014936264043252878          0.9204189441224917 0.14446474391538539          1.0000   
         H         H         1.0       0.9984281931159121  0.95566650893041    0.13045611657563802          1.0000   
         H         H         1.0       0.0064522184115658465         0.8546130458658235 0.2623074920281342 1.0000   
         H         H         1.0       0.9830740227536758  0.8352929531110748  0.2249234935874937 1.0000   
         H         H         1.0       0.0014148989814426471         0.927448070061649  0.20690639504729272          1.0000   
         H         H         1.0       0.013492500617168224          0.9424932366547162 0.25249470409034   1.0000   
         H         H         1.0       0.005630648811050021          0.8309797248223589 0.17852607759074127          1.0000   
         H         H         1.0       0.060504383608939616          0.8409720632699335 0.1807519090160182 1.0000   
         H         H         1.0       0.1074019812552407  0.9450604729167683  0.18285339756960292          1.0000   
         H         H         1.0       0.05061459679809799           0.935095918518511  0.17998104846671972          1.0000   
         H         H         1.0       0.9199781192639994  0.8194254311112501  0.20272881316871127          1.0000   
         H         H         1.0       0.8759111950321198  0.7675497682783966  0.18588187847899804          1.0000   
         H         H         1.0       0.9397851864174362  0.7901002983484133  0.12359119997145392          1.0000   
         H         H         1.0       0.9840432898985191  0.843256912639146   0.14068913038562283          1.0000   
         C         C         1.0       0.9264067347208829  0.9436560036656332  0.991402514052805  1.0000   
         C         C         1.0       0.8944081401942967  0.9143139364665269  0.9956041680129144 1.0000   
         C         C         1.0       0.8826260683879534  0.8891879659890739  0.9790271615063598 1.0000   
         C         C         1.0       0.900248436112835   0.8927157706478993  0.957400866353069  1.0000   
         C         C         1.0       0.933194427777818   0.9218853599941085  0.9549730750514835 1.0000   
         C         C         1.0       0.9470887572848821  0.9455872586958314  0.972838153387329  1.0000   
         H         H         1.0       0.8746604884438467  0.9122080088449749  0.00810853305623227          1.0000   
         H         H         1.0       0.8574020324562288  0.8673656213228982  0.9829418192731423 1.0000   
         H         H         1.0       0.9507747401494882  0.9259400780340676  0.9405743012828758 1.0000   
         H         H         1.0       0.9719027460678147  0.966794463354603   0.9695293923567712 1.0000   
         C         C         1.0       0.8851044472221924  0.9175321450211735  0.908583545580843  1.0000   
         C         C         1.0       0.8895170540230776  0.8914686450832775  0.9073885766125214 1.0000   
         C         C         1.0       0.8930568855006019  0.8823283488652435  0.8839416543199531 1.0000   
         C         C         1.0       0.8874737940527346  0.8954537783373673  0.8632766046250276 1.0000   
         C         C         1.0       0.8794225363328654  0.9183111597066074  0.8654038234812701 1.0000   
         C         C         1.0       0.8799167783275772  0.9307555352987706  0.8873750967270184 1.0000   
         C         C         1.0       0.8866887180273323  0.8712791373361026  0.9318049628691609 1.0000   
         C         C         1.0       0.8464372409002864  0.8400710358755433  0.9296211328421466 1.0000   
         C         C         1.0       0.8367472454392983  0.8106681913651638  0.9187351723972148 1.0000   
         C         C         1.0       0.8030914102402501  0.7881480097994705  0.9113702138476091 1.0000   
         C         C         1.0       0.7784585738218451  0.7931059768764728  0.9175358218949035 1.0000   
         C         C         1.0       0.7876666896969035  0.8206257311416024  0.9309973405382956 1.0000   
         C         C         1.0       0.8220696202376607  0.8448760517327212  0.9359867081024468 1.0000   
         C         C         1.0       0.9463120757849345  0.8780357939745718  0.9203331716944207 1.0000   
         C         C         1.0       0.9696353881776943  0.8694270263734148  0.920057295308894  1.0000   
         C         C         1.0       0.9617171943099098  0.8414322978848189  0.9317952787216067 1.0000   
         C         C         1.0       0.9306927765056038  0.8226035121915013  0.9443893962289556 1.0000   
         C         C         1.0       0.9082607721196594  0.8327732903255347  0.9433873131101673 1.0000   
         C         C         1.0       0.9129317724152426  0.8592747990972339  0.93111868993917   1.0000   
         C         C         1.0       0.9820955332796484  0.8263638847363025  0.9218518598122525 1.0000   
         C         C         1.0       0.9469432546507319  0.8152946643401419  0.8454208414589284 1.0000   
         C         C         1.0       0.9808408647066926  0.8371551993996823  0.8510441228641362 1.0000   
         C         C         1.0       0.9942560630384653  0.8416134801836599  0.8744030555099529 1.0000   
         C         C         1.0       0.9719756892131846  0.8230104184269155  0.8936865617003672 1.0000   
         C         C         1.0       0.9375848543124333  0.8008431513171566  0.8875370963925622 1.0000   
         C         C         1.0       0.925732911182306   0.7959425619433751  0.8644143740152153 1.0000   
         C         C         1.0       0.971578366500936   0.7896993696040677  0.9304678386497417 1.0000   
         C         C         1.0       0.9705098260169364  0.781612343737426   0.9560772253014219 1.0000   
         C         C         1.0       0.9711225403491043  0.7552965336714413  0.9637670248288873 1.0000   
         C         C         1.0       0.9682775036050746  0.7324610871094921  0.9476083078161828 1.0000   
         C         C         1.0       0.9676247580364717  0.7388314567409592  0.9226862836926768 1.0000   
         C         C         1.0       0.9694486373624501  0.765318005966949   0.9142979982350645 1.0000   
         C         C         1.0       0.03053534208045372           0.86429747289971   0.9515068458143175 1.0000   
         C         C         1.0       0.06189987032510813           0.8755577902184601 0.9635690932322691 1.0000   
         C         C         1.0       0.08586221461988086           0.8722548948396619 0.9519849944336211 1.0000   
         C         C         1.0       0.07826772989869446           0.857654482477679  0.9293918635263422 1.0000   
         C         C         1.0       0.04710815250925404           0.8448775858744483 0.9194702324627061 1.0000   
         C         C         1.0       0.02182685655213401           0.8473651888612037 0.9291917179631928 1.0000   
         H         H         1.0       0.8823163191030337  0.9249885724141818  0.9268571752879609 1.0000   
         H         H         1.0       0.8997544009468353  0.864415506920922   0.883673423546451  1.0000   
         H         H         1.0       0.8862870070498359  0.8860543009434871  0.8456150282731288 1.0000   
         H         H         1.0       0.8769145645001266  0.9512301440928096  0.8865567202207112 1.0000   
         H         H         1.0       0.8539064862580781  0.804354377243639   0.9136012213800061 1.0000   
         H         H         1.0       0.7931821548008704  0.765880437063425   0.9021220391542496 1.0000   
         H         H         1.0       0.7701065995442491  0.8268350002415535  0.9359447181722044 1.0000   
         H         H         1.0       0.8288515155398408  0.8667891451131441  0.9464072576307095 1.0000   
         H         H         1.0       0.954781334739318   0.9017798595414044  0.9118050083093348 1.0000   
         H         H         1.0       0.9950458422760637  0.8824273857057319  0.909222319916515  1.0000   
         H         H         1.0       0.9192918350274702  0.7969961130222394  0.9489927792613827 1.0000   
         H         H         1.0       0.8839837307260741  0.819118755610275   0.9539196390691443 1.0000   
         H         H         1.0       0.9971674753964834  0.8506100356770881  0.8363408857214657 1.0000   
         H         H         1.0       0.018926033890245497          0.8619426258419667 0.8788351424844807 1.0000   
         H         H         1.0       0.9194537796193164  0.7855779184820096  0.9016680412483341 1.0000   
         H         H         1.0       0.8992790550897802  0.7754693692299081  0.8593836802631558 1.0000   
         H         H         1.0       0.9750903221440556  0.8021046062118923  0.9678639181348639 1.0000   
         H         H         1.0       0.9748494298247634  0.7518392281538424  0.9820478480529861 1.0000   
         H         H         1.0       0.9632781673677008  0.7202785296547142  0.9098352290757427 1.0000   
         H         H         1.0       0.9717105286627088  0.7712958026483038  0.8955140863754663 1.0000   
         H         H         1.0       0.014910702418674093          0.8696213998175607 0.9621872659098991 1.0000   
         H         H         1.0       0.06797981323628322           0.8858341500834278 0.9814713351553914 1.0000   
         H         H         1.0       0.09544675751954479           0.8530005827209806 0.9200928720555897 1.0000   
         H         H         1.0       0.04351665353134049           0.8307415118270929 0.9029592122792485 1.0000   
         C         C         1.0       0.6392645219070731  0.772179942963989   0.7708594453740074 1.0000   
         C         C         1.0       0.6432448303806957  0.7464776115565213  0.7754703153326116 1.0000   
         C         C         1.0       0.6646927143058196  0.748810418578064   0.7943526482346079 1.0000   
         C         C         1.0       0.6819307479452013  0.7759811308421244  0.8091672415701838 1.0000   
         C         C         1.0       0.6716636690998503  0.797894005619451   0.8082253365878996 1.0000   
         C         C         1.0       0.652883439907407   0.7968671295320937  0.7875163570374392 1.0000   
         H         H         1.0       0.6299323202912364  0.724941147304026   0.7630746215637934 1.0000   
         H         H         1.0       0.6644706184976013  0.7270535285260509  0.7964071312880279 1.0000   
         H         H         1.0       0.6822083723630222  0.8189303108292202  0.82052743646657   1.0000   
         H         H         1.0       0.6480709412361213  0.8158530050540419  0.7853923784674448 1.0000   
         C         C         1.0       0.7578112136898694  0.8422382938113864  0.8116000529982467 1.0000   
         C         C         1.0       0.7451037574204282  0.8194788269542327  0.8298918931110703 1.0000   
         C         C         1.0       0.7628795083751579  0.8289471639142811  0.8515282112257888 1.0000   
         C         C         1.0       0.7916779127933163  0.8604282097878474  0.8556312579079306 1.0000   
         C         C         1.0       0.802811847354328   0.8840986265160417  0.837736914400948  1.0000   
         C         C         1.0       0.7868839397845963  0.8745783984017472  0.8156144363888023 1.0000   
         C         C         1.0       0.7122793085917676  0.7814982562674229  0.8265439240024122 1.0000   
         C         C         1.0       0.7314443071317664  0.7649866292432894  0.8166694171206428 1.0000   
         C         C         1.0       0.7371017047679065  0.7461694555532112  0.8329006453451863 1.0000   
         C         C         1.0       0.7492262404876703  0.7293834379590385  0.8253696598796909 1.0000   
         C         C         1.0       0.756594518839433   0.728786761768895   0.8015172270093573 1.0000   
         C         C         1.0       0.7518373045102534  0.747225485293255   0.7840605643724846 1.0000   
         C         C         1.0       0.7413938101778953  0.7663626630050592  0.7925762415936413 1.0000   
         C         C         1.0       0.6846676059338422  0.7807880175838383  0.8687959711947433 1.0000   
         C         C         1.0       0.1736679842821689  0.8172129924486058  0.9038618696818153 1.0000   
         C         C         1.0       0.16177726255064528           0.7847058099991138 0.910452689385673  1.0000   
         C         C         1.0       0.17209476179487426           0.768712410503885  0.8954117370966478 1.0000   
         C         C         1.0       0.1938958190411073  0.7837460634615696  0.8760173037700784 1.0000   
         C         C         1.0       0.6889482425919119  0.7640279451436517  0.8508648829966861 1.0000   
         C         C         1.0       0.13410902119119128           0.7647923154060048 0.9328066863159757 1.0000   
         C         C         1.0       0.16830965878282012           0.7258576338098028 0.9926021440091133 1.0000   
         C         C         1.0       0.14299160447304526           0.7317278310814431 0.9958549819039508 1.0000   
         C         C         1.0       0.13471591462528787           0.7450509761152694 0.9773919380520586 1.0000   
         C         C         1.0       0.15008808423516284           0.7533048194648186 0.9540430448400049 1.0000   
         C         C         1.0       0.17734372466852344           0.7488941287525381 0.9514582324138134 1.0000   
         C         C         1.0       0.18706865060606903           0.736636220883591  0.9702333790044698 1.0000   
         C         C         1.0       0.101312942253595   0.7302146505701435  0.9204837987171558 1.0000   
         C         C         1.0       0.08718409039239927           0.7349288727430371 0.9002624387948651 1.0000   
         C         C         1.0       0.0621891882782748  0.7068504062820474  0.8879984739203175 1.0000   
         C         C         1.0       0.05078918142193656           0.6746480708172335 0.8947879418488818 1.0000   
         C         C         1.0       0.06918952334703787           0.6714335791252042 0.9130069501941993 1.0000   
         C         C         1.0       0.09544626419066793           0.7000482492358384 0.9247563417613093 1.0000   
         C         C         1.0       0.0930258913566202  0.78363763955921    0.944419353373528  1.0000   
         C         C         1.0       0.08602932097431681           0.8025913629729167 0.9600410898200337 1.0000   
         C         C         1.0       0.11280840830160321           0.8286580806634264 0.9728061844406911 1.0000   
         C         C         1.0       0.14490686446522694           0.8331643848232625 0.9738922268700365 1.0000   
         C         C         1.0       0.14931003193103387           0.8125573315016801 0.9605365381432552 1.0000   
         C         C         1.0       0.12463632516831202           0.7874684852224071 0.9452469348878748 1.0000   
         H         H         1.0       0.7463471202435169  0.8334074983099586  0.7934110263480257 1.0000   
         H         H         1.0       0.7592132036403686  0.8115680414847333  0.866586388267611  1.0000   
         H         H         1.0       0.8049635819346095  0.8639910492405076  0.8734931550594455 1.0000   
         H         H         1.0       0.796469652547646   0.8913435324358799  0.8006504246634925 1.0000   
         H         H         1.0       0.7292811319575974  0.7428135438183683  0.8521612489749282 1.0000   
         H         H         1.0       0.7514012126986516  0.715697285166709   0.8401353704876074 1.0000   
         H         H         1.0       0.760075762200519   0.7497059107896829  0.7656477316785694 1.0000   
         H         H         1.0       0.7408169340901445  0.7820343853882925  0.7783407201253761 1.0000   
         H         H         1.0       0.6979326740980851  0.8068214601728451  0.866960073759494  1.0000   
         H         H         1.0       0.1669183933722873  0.8321704972048409  0.9135020614813444 1.0000   
         H         H         1.0       0.1627677871333435  0.743713158216788   0.9000010756658734 1.0000   
         H         H         1.0       0.20006895644845524           0.7703292541426645 0.8648976915346125 1.0000   
         H         H         1.0       0.12815731890903792           0.7251891864046184 0.012321779161005297         1.0000   
         H         H         1.0       0.11336485954651421           0.7474206914859972 0.9802300161372558 1.0000   
         H         H         1.0       0.19511493169403815           0.7570039562710146 0.9353534314783498 1.0000   
         H         H         1.0       0.20939124118351105           0.7354356338937309 0.9701833118063762 1.0000   
         H         H         1.0       0.09222699531547485           0.7577774228091908 0.893495853924676  1.0000   
         H         H         1.0       0.05068346518913214           0.7090867964620146 0.8723493354473271 1.0000   
         H         H         1.0       0.06182861601145051           0.646092759282984  0.9177011369200738 1.0000   
         H         H         1.0       0.10200954100024462           0.6938308908353409 0.9426491913442635 1.0000   
         H         H         1.0       0.07273522273732813           0.763896935953916  0.933103841017938  1.0000   
         H         H         1.0       0.060647549145749435          0.7993376590445848 0.9601466183932867 1.0000   
         H         H         1.0       0.16808174734093484           0.8509820168090496 0.9816215335805176 1.0000   
         H         H         1.0       0.17454111644031478           0.8170237361419671 0.9617094828720114 1.0000   
         C         C         1.0       0.6923690934278556  0.8257731191271945  0.6502183266272279 1.0000   
         C         C         1.0       0.6601431788283596  0.8180619091207088  0.6587438134307823 1.0000   
         C         C         1.0       0.6485120346724997  0.8368352707487497  0.6529989879065733 1.0000   
         C         C         1.0       0.672536864120004   0.87021435651877    0.6433071792937138 1.0000   
         C         C         1.0       0.703484666349033   0.8766459638892017  0.6350892922951236 1.0000   
         C         C         1.0       0.7138615826453868  0.855644815089593   0.6393406169656088 1.0000   
         H         H         1.0       0.6422004663310905  0.7933700798608491  0.6614591270709448 1.0000   
         H         H         1.0       0.6222941661600352  0.8266046012780152  0.6594214126492942 1.0000   
         H         H         1.0       0.7216997956795488  0.8999694121029174  0.6264357708068925 1.0000   
         H         H         1.0       0.7398901818302424  0.8626920221308024  0.6333638677746825 1.0000   
         C         C         1.0       0.7247388055604177  0.9479306022410017  0.6501851915788721 1.0000   
         C         C         1.0       0.695403204389998   0.933182213266425   0.6347745207799391 1.0000   
         C         C         1.0       0.6948581392485842  0.954902401256941   0.6178903953672067 1.0000   
         C         C         1.0       0.7235380582503435  0.9871403109593232  0.6154339206496234 1.0000   
         C         C         1.0       0.7529374564453328  0.9989272912506729  0.6301778307684475 1.0000   
         C         C         1.0       0.7534681993373051  0.9796568223414576  0.6477784532549686 1.0000   
         C         C         1.0       0.6630197982551174  0.8964896759259777  0.6393663561996556 1.0000   
         C         C         1.0       0.6433434433174499  0.8984171756375323  0.6616039122928965 1.0000   
         C         C         1.0       0.6291975572348611  0.9175400560092047  0.6607948709239523 1.0000   
         C         C         1.0       0.6279178111145701  0.9331315932606338  0.681771507114576  1.0000   
         C         C         1.0       0.6351088576450751  0.9255240309874316  0.7038230059923962 1.0000   
         C         C         1.0       0.6430757325814972  0.9032219604684661  0.7056050995328261 1.0000   
         C         C         1.0       0.6489576287095655  0.8906075592394497  0.6846055799008142 1.0000   
         C         C         1.0       0.6502682397866864  0.8821358432996314  0.5932969258883195 1.0000   
         C         C         1.0       0.16302886893273527           0.8341030747058737 0.5591849843842953 1.0000   
         C         C         1.0       0.13147929954916915           0.828949196943485  0.5642302400761626 1.0000   
         C         C         1.0       0.12031311604251971           0.8243434496529569 0.5878805688756573 1.0000   
         C         C         1.0       0.14288109109462588           0.8307203113892012 0.6058306718758439 1.0000   
         C         C         1.0       0.6362179599875902  0.880760080100904   0.6158826204476612 1.0000   
         C         C         1.0       0.1114446907864095  0.8325153108230656  0.5423941992220667 1.0000   
         C         C         1.0       0.18474658074584838           0.9346174219451558 0.518314359950493  1.0000   
         C         C         1.0       0.17290549143723366           0.9093773443740328 0.5022576156827955 1.0000   
         C         C         1.0       0.15128306712955908           0.876572441131513  0.5099180208748989 1.0000   
         C         C         1.0       0.1389761156444873  0.8690683232088423  0.5336321249791711 1.0000   
         C         C         1.0       0.15035480559405134           0.8957611940285696 0.550314175970012  1.0000   
         C         C         1.0       0.17477907640034918           0.927339527457582  0.5422902757898861 1.0000   
         C         C         1.0       0.07648775478364844           0.8295221645602067 0.547277641502076  1.0000   
         C         C         1.0       0.048123138944345945          0.7996893250280314 0.5574065913906231 1.0000   
         C         C         1.0       0.015982394057155513          0.791955233974894  0.5562177670241094 1.0000   
         C         C         1.0       0.009838565887629658          0.814489089219403  0.5460299394142223 1.0000   
         C         C         1.0       0.038987785231437755          0.8466961439864583 0.5392958850450564 1.0000   
         C         C         1.0       0.07192207913844828           0.8537276173292673 0.5401576469466602 1.0000   
         C         C         1.0       0.08574651023984114           0.8023175162216988 0.5010244626607585 1.0000   
         C         C         1.0       0.07046369174901868           0.775518269901175  0.48532828100951797          1.0000   
         C         C         1.0       0.06849733495711585           0.7475209419147617 0.4920496336758126 1.0000   
         C         C         1.0       0.08288832740492436           0.7467568801338174 0.5133553578440988 1.0000   
         C         C         1.0       0.09898326021564086           0.7738899263323163 0.5295684632177208 1.0000   
         C         C         1.0       0.09922500366039633           0.8018974021575828 0.5234416046192442 1.0000   
         H         H         1.0       0.723870649997892   0.9323118403218037  0.6637520074079    1.0000   
         H         H         1.0       0.6740649768986622  0.945207413449976   0.6046733865618498 1.0000   
         H         H         1.0       0.7216350602483543  0.0027584300651966043        0.6023534120547696 1.0000   
         H         H         1.0       0.7772511209756265  0.9894368406106056  0.6589740984597141 1.0000   
         H         H         1.0       0.6303644715831287  0.9280377588953814  0.6424747104597718 1.0000   
         H         H         1.0       0.6228379704189713  0.951422504860952   0.6772907773184661 1.0000   
         H         H         1.0       0.6519735537041995  0.8983103171224979  0.7231582461363562 1.0000   
         H         H         1.0       0.6616265484771677  0.8775223098551175  0.686532185569592  1.0000   
         H         H         1.0       0.6768834661872479  0.8914110096804805  0.5919303333717247 1.0000   
         H         H         1.0       0.16757606084956866           0.835406936266845  0.5394651282390871 1.0000   
         H         H         1.0       0.09711007634652513           0.8219716517082516 0.5926639105551628 1.0000   
         H         H         1.0       0.13516526285022734           0.8264321022203361 0.6239598697547931 1.0000   
         H         H         1.0       0.18009647078746616           0.9131089222741529 0.4822683648098187 1.0000   
         H         H         1.0       0.1458470881975804  0.8588669596799446  0.4959285360624748 1.0000   
         H         H         1.0       0.14573631641404128           0.8921314551550095 0.5688826782028457 1.0000   
         H         H         1.0       0.18398075222470722           0.9469466176545462 0.5550945696451351 1.0000   
         H         H         1.0       0.05351839377974943           0.7817895179103199 0.5637281226112281 1.0000   
         H         H         1.0       0.9949367075693295  0.7675959029512427  0.5579386595352815 1.0000   
         H         H         1.0       0.035393599143210164          0.86396038831557   0.5311264033016356 1.0000   
         H         H         1.0       0.09055645105347443           0.874753589132095  0.5298243708904045 1.0000   
         H         H         1.0       0.08756952476483115           0.8250140632552124 0.49809770845403434          1.0000   
         H         H         1.0       0.0600247551096571  0.7736278673449526  0.46691880056712365          1.0000   
         H         H         1.0       0.08295191579237748           0.7281439467675814 0.5224714793656284 1.0000   
         H         H         1.0       0.10513103280248348           0.7707749608473701 0.5480976326816402 1.0000   
         C         C         1.0       0.8739252587989431  0.9662111678221099  0.4944370373788496 1.0000   
         C         C         1.0       0.8591945074246916  0.9607610552941043  0.5176111310590332 1.0000   
         C         C         1.0       0.8379612725295503  0.970701218925552   0.5225902537894117 1.0000   
         C         C         1.0       0.8362523730842869  0.9924234815196982  0.5072982814756108 1.0000   
         C         C         1.0       0.8507794804501178  0.9978416385395064  0.4846419256804851 1.0000   
         C         C         1.0       0.8715078921737764  0.9874894601693867  0.47880028002924985          1.0000   
         H         H         1.0       0.8596201341822645  0.9423412550481811  0.5304250034221604 1.0000   
         H         H         1.0       0.8265628009166692  0.9663987720972245  0.5404202225078786 1.0000   
         H         H         1.0       0.8461441047439874  0.011847188900375949         0.47105640373939145          1.0000   
         H         H         1.0       0.8806257376925691  0.9909648166765809  0.45972206586796305          1.0000   
         C         C         1.0       0.8406212547119424  0.023851182629705203         0.5571310148920242 1.0000   
         C         C         1.0       0.8123144565760677  0.014156527063450275         0.5418497928131484 1.0000   
         C         C         1.0       0.7857453753374158  0.015766387578937335         0.5514005004956347 1.0000   
         C         C         1.0       0.7878456390818744  0.02629975230548043           0.5750153402652348 1.0000   
         C         C         1.0       0.8159925305793324  0.03442749450922933           0.5903744902828262 1.0000   
         C         C         1.0       0.8414730838693142  0.03351529312388912           0.5807458320643775 1.0000   
         C         C         1.0       0.8118070791345467  0.0035567096535051856        0.5141017246208912 1.0000   
         C         C         1.0       0.7745933351984972  0.9713905295992606  0.506194559339587  1.0000   
         C         C         1.0       0.7632416643972422  0.9644169113453375  0.48127186726276316          1.0000   
         C         C         1.0       0.7326026683798893  0.9348064364075038  0.4747030061703468 1.0000   
         C         C         1.0       0.7109680163570369  0.9115373033112311  0.4922164222541461 1.0000   
         C         C         1.0       0.7207191571405172  0.9173750643291064  0.516141430356612  1.0000   
         C         C         1.0       0.7526470012392984  0.9458875671554438  0.5227410027736465 1.0000   
         C         C         1.0       0.8251599016030169  0.5701047070436545  0.46090405170008886          1.0000   
         C         C         1.0       0.8502511364418615  0.5958898991707177  0.4743023860150606 1.0000   
         C         C         1.0       0.8515496380049357  0.6249244829784765  0.4749847339213056 1.0000   
         C         C         1.0       0.8252135959009117  0.624941942697755   0.4627360225004639 1.0000   
         C         C         1.0       0.8005741513972401  0.5977450410789585  0.44976586818306885          1.0000   
         C         C         1.0       0.8015119865721954  0.5714343496386382  0.4466561317897722 1.0000   
         C         C         1.0       0.8784553685762663  0.6541472799099791  0.49415432404942367          1.0000   
         C         C         1.0       0.8270025746398919  0.6010360462900161  0.562116030030463  1.0000   
         C         C         1.0       0.8540046881008625  0.6003139089303705  0.5523627078769362 1.0000   
         C         C         1.0       0.8724353842884742  0.61878972034767    0.531666422985252  1.0000   
         C         C         1.0       0.8608081906653015  0.6359825331385947  0.519789515253974  1.0000   
         C         C         1.0       0.8338910984522917  0.6370112786470035  0.5289380995187256 1.0000   
         C         C         1.0       0.8166975823448719  0.6189312167627031  0.5505956138615203 1.0000   
         C         C         1.0       0.8832214023357707  0.688280811807395   0.4894342500004187 1.0000   
         C         C         1.0       0.8865716410832806  0.6978841719415599  0.4652635949945945 1.0000   
         C         C         1.0       0.8907392175938814  0.7270052759774824  0.4590198160258374 1.0000   
         C         C         1.0       0.8897885841935987  0.7453620789060188  0.47700169342048687          1.0000   
         C         C         1.0       0.8873664490126129  0.7371487469772124  0.5008580781016846 1.0000   
         C         C         1.0       0.8846081218496611  0.7088984271608385  0.5075982592630606 1.0000   
         C         C         1.0       0.9425078569561492  0.6838297686044799  0.5093797032973472 1.0000   
         C         C         1.0       0.9757736636268484  0.6911940069082219  0.5078149095226302 1.0000   
         C         C         1.0       0.9861407188300513  0.6833653712026662  0.48579975234363254          1.0000   
         C         C         1.0       0.962588045426125   0.6698695918237809  0.4667819069900701 1.0000   
         C         C         1.0       0.9292730276961864  0.6605895221747257  0.4701223928313374 1.0000   
         C         C         1.0       0.9182190526112589  0.6659138128006867  0.4912643205346987 1.0000   
         H         H         1.0       0.8607178321071492  0.021118919651592627         0.5518615987170935 1.0000   
         H         H         1.0       0.7624161126852926  0.004481189378134243         0.5401155322083905 1.0000   
         H         H         1.0       0.7647848435396932  0.023899421358432038         0.5814945437696218 1.0000   
         H         H         1.0       0.8645027726126603  0.04005142002823381           0.5909345332993818 1.0000   
         H         H         1.0       0.7814707518580891  0.9795463811475684  0.46596485950744204          1.0000   
         H         H         1.0       0.723330996151764   0.9290432679976339  0.4565560803510255 1.0000   
         H         H         1.0       0.7040485695220148  0.8970300451849975  0.5293304109428809 1.0000   
         H         H         1.0       0.7645712927174702  0.9518052796652265  0.5412707479833484 1.0000   
         H         H         1.0       0.8734171164390655  0.0576965381475647  0.5108909008916003 1.0000   
         H         H         1.0       0.8683790746471726  0.593496733774999   0.4852420618100047 1.0000   
         H         H         1.0       0.8223367399624592  0.6457903192479731  0.46633278088109326          1.0000   
         H         H         1.0       0.7809737458503441  0.5996761451158193  0.44054512952627234          1.0000   
         H         H         1.0       0.8641994429535874  0.5872154549697921  0.5598779656043051 1.0000   
         H         H         1.0       0.8975068582867479  0.6224103980316281  0.5263353499150811 1.0000   
         H         H         1.0       0.8199323916920932  0.6459236290797479  0.5191158911407164 1.0000   
         H         H         1.0       0.7958848114543147  0.6215886177477359  0.5580574498464871 1.0000   
         H         H         1.0       0.8869999611668339  0.6838928906848406  0.4505393703652176 1.0000   
         H         H         1.0       0.8923905529541926  0.7337704629993641  0.4402905997745347 1.0000   
         H         H         1.0       0.889345720637005   0.7517384414213463  0.515777345244018  1.0000   
         H         H         1.0       0.8875644113507336  0.7047040288696308  0.5270599462759891 1.0000   
         H         H         1.0       0.935036460493778   0.6931166431786788  0.5245000316635443 1.0000   
         H         H         1.0       0.9952608160728699  0.7019139184754171  0.5215582468306768 1.0000   
         H         H         1.0       0.9675040617323702  0.6626506927255379  0.44966749994814664          1.0000   
         H         H         1.0       0.913110929097134   0.6515876660480838  0.45445724139133475          1.0000   
         C         C         1.0       0.907818068342126   0.04866716201776744           0.8553490650255069 1.0000   
         C         C         1.0       0.876183647750753   0.024948106342821852         0.865013557871641  1.0000   
         C         C         1.0       0.8450603731243007  0.015014569309793613         0.8534224428205303 1.0000   
         C         C         1.0       0.8453150101653824  0.030408187146316656         0.8311060435477831 1.0000   
         C         C         1.0       0.8779719067062853  0.0535593834383532  0.8212434507428974 1.0000   
         C         C         1.0       0.9096613776101725  0.06382789872971983           0.8335841760642858 1.0000   
         H         H         1.0       0.8727039638926019  0.011234148408601818         0.8827715425995475 1.0000   
         H         H         1.0       0.8207273822554546  0.9952786167869572  0.862403713494715  1.0000   
         H         H         1.0       0.9669408628713314  0.6465894136544209  0.7985236995719611 1.0000   
         H         H         1.0       0.9950348543039482  0.6371439739046615  0.8290411889091127 1.0000   
         C         C         1.0       0.9835441854575865  0.7088846471588911  0.7809356120301415 1.0000   
         C         C         1.0       0.9484340463805166  0.6878595435185239  0.7776782363641269 1.0000   
         C         C         1.0       0.9346305839009128  0.6850147985093776  0.7545784432161099 1.0000   
         C         C         1.0       0.9557351856598338  0.696993878793012   0.733786796171167  1.0000   
         C         C         1.0       0.9909863710229864  0.717096679401022   0.7374909870330021 1.0000   
         C         C         1.0       0.0047675199535668344         0.7239259405568743 0.7611236416068583 1.0000   
         C         C         1.0       0.8100468048236397  0.016500230919878067         0.8162192997400022 1.0000   
         C         C         1.0       0.7743850510255664  0.002843030803236113         0.8313401617230675 1.0000   
         C         C         1.0       0.744826492795673   0.9873584445368333  0.818029030556721  1.0000   
         C         C         1.0       0.7145793589312515  0.9846401982250308  0.8272178700996284 1.0000   
         C         C         1.0       0.9088108479854985  0.7478982029564494  0.8076198389046348 1.0000   
         C         C         1.0       0.935492883716677   0.7493026875494133  0.8200660148421562 1.0000   
         C         C         1.0       0.9378668663771418  0.7228571812421072  0.8194795280807345 1.0000   
         C         C         1.0       0.8249194845641175  0.9980930478011725  0.7764733570276598 1.0000   
         C         C         1.0       0.8168782683582     0.9763275729069628  0.7578915460847072 1.0000   
         C         C         1.0       0.7876736867859522  0.9430098523500164  0.7609539798305173 1.0000   
         C         C         1.0       0.7744116379844779  0.9307918378093304  0.7845228336118388 1.0000   
         C         C         1.0       0.7852017439852347  0.9550194033655728  0.8022856977202417 1.0000   
         C         C         1.0       0.8068337201916673  0.9887550697580674  0.798258704538715  1.0000   
         C         C         1.0       0.7640178002807517  0.9252193908579777  0.7376817566316692 1.0000   
         C         C         1.0       0.7047311087857354  0.9700882253255696  0.734326973315102  1.0000   
         C         C         1.0       0.7291007574788999  0.9776084322246341  0.7171440893218978 1.0000   
         C         C         1.0       0.7502953893143633  0.9661792983169573  0.718961022530994  1.0000   
         C         C         1.0       0.7437110035049067  0.9436665334374976  0.7367578574134658 1.0000   
         C         C         1.0       0.7179309441306141  0.9349860178981841  0.7534546294167668 1.0000   
         C         C         1.0       0.6995467242290581  0.9491640101281972  0.7528626058008927 1.0000   
         C         C         1.0       0.7344465106208156  0.8852676904040059  0.7376190768129293 1.0000   
         C         C         1.0       0.73964351335967    0.8622381798009535  0.7456120857742576 1.0000   
         C         C         1.0       0.7165759728518613  0.8291021067917151  0.7402218783562837 1.0000   
         C         C         1.0       0.6861082109403148  0.8183388849350464  0.7281234808813306 1.0000   
         C         C         1.0       0.6805973648509449  0.8408206826966088  0.720041501091761  1.0000   
         C         C         1.0       0.7051186698383392  0.8746776143974542  0.7239687608791042 1.0000   
         C         C         1.0       0.7726965718363238  0.9203909092520548  0.6915370681600614 1.0000   
         C         C         1.0       0.7929587343737042  0.9229760853308432  0.6723740726208696 1.0000   
         C         C         1.0       0.8244335620916323  0.9267274584039884  0.6763531916970018 1.0000   
         C         C         1.0       0.8372476826069554  0.9319447487817671  0.6996917620513322 1.0000   
         C         C         1.0       0.8187837963939046  0.9316496126073364  0.7182821547932647 1.0000   
         C         C         1.0       0.786275658171375   0.9256919641889367  0.71488124540092   1.0000   
         H         H         1.0       0.9959219199974613  0.7132092676066036  0.7990839847751756 1.0000   
         H         H         1.0       0.7813723772455324  0.017548645016394193         0.7699501723726344 1.0000   
         H         H         1.0       0.9448697504888103  0.691189694632636   0.7152058717547308 1.0000   
         H         H         1.0       0.03306391162322608           0.738552588684311  0.7633247137987774 1.0000   
         H         H         1.0       0.742977929617586   0.9776426178661144  0.8001052494940357 1.0000   
         H         H         1.0       0.6908643874628768  0.9722016163277029  0.8158323855490737 1.0000   
         H         H         1.0       0.9560110750459708  0.7684603755840282  0.8310051395714876 1.0000   
         H         H         1.0       0.9588350060037051  0.7241239977456189  0.8274863248691149 1.0000   
         H         H         1.0       0.843952197884118   0.022563842881207385         0.7721880668597935 1.0000   
         H         H         1.0       0.8259721194279012  0.9856664060998271  0.7399325803872797 1.0000   
         H         H         1.0       0.7526329810464482  0.9053731174349888  0.7875158054947852 1.0000   
         H         H         1.0       0.7774528115719855  0.9470126125369465  0.820725497366435  1.0000   
         H         H         1.0       0.729730094432065   0.9894043335122722  0.7000695772940493 1.0000   
         H         H         1.0       0.7680869346346081  0.973362158054471   0.703886754459185  1.0000   
         H         H         1.0       0.7120190249808431  0.9171696807689517  0.7680724091979171 1.0000   
         H         H         1.0       0.6812979106289478  0.942408434908894   0.7673667569542744 1.0000   
         H         H         1.0       0.7643065905333705  0.8712711785200137  0.75522599835236   1.0000   
         H         H         1.0       0.72468425500652    0.8138079452885226  0.7486991422759603 1.0000   
         H         H         1.0       0.6568529126444155  0.8328153047065717  0.7105793122333287 1.0000   
         H         H         1.0       0.7000044172661027  0.890568204844617   0.7144896995595945 1.0000   
         H         H         1.0       0.7482386436458391  0.9145152974022155  0.6875682103234312 1.0000   
         H         H         1.0       0.7822061607077047  0.9202563165138711  0.6540560695260363 1.0000   
         H         H         1.0       0.8628001072384015  0.9376767710552356  0.7033173532581336 1.0000   
         H         H         1.0       0.8340934589881336  0.9383002245912354  0.7351677004744722 1.0000   
         C         C         1.0       0.942287404393476   0.7981209250954403  0.5760562291594512 1.0000   
         C         C         1.0       0.9092204378250187  0.7689270012530054  0.5753817354657368 1.0000   
         C         C         1.0       0.8989162768337803  0.74974384403833    0.5957412972996057 1.0000   
         C         C         1.0       0.9198626077696367  0.7585616748070289  0.6155762142540222 1.0000   
         C         C         1.0       0.9513197833057477  0.7907543371910579  0.6172744946147348 1.0000   
         C         C         1.0       0.9624626852359267  0.8097774250272002  0.5963004348039042 1.0000   
         H         H         1.0       0.8923272458910414  0.7605680574337417  0.5612037418680733 1.0000   
         H         H         1.0       0.8713361911480971  0.7280452936658599  0.5969952104848907 1.0000   
         H         H         1.0       0.9657224383407002  0.8000135429462865  0.6349045887113041 1.0000   
         H         H         1.0       0.9876125271249065  0.8324701788756073  0.5947341061374456 1.0000   
         C         C         1.0       0.9661882943742871  0.7430943063812256  0.6456081411306233 1.0000   
         C         C         1.0       0.9369111276211277  0.7420543008485577  0.6550636394070106 1.0000   
         C         C         1.0       0.9351722468168551  0.7443158459035051  0.6798557930920873 1.0000   
         C         C         1.0       0.9622900795431002  0.7526879655534101  0.6953049831807038 1.0000   
         C         C         1.0       0.9907214133498339  0.7543942503110216  0.6864795744162807 1.0000   
         C         C         1.0       0.9927172416247911  0.750001431827696   0.661471734148087  1.0000   
         C         C         1.0       0.9047882681291128  0.7359860120863005  0.6388325374837813 1.0000   
         C         C         1.0       0.8873121821806506  0.6969347004462468  0.6309713248137749 1.0000   
         C         C         1.0       0.859578783338507   0.671493635174427   0.6443648807943988 1.0000   
         C         C         1.0       0.8437562454591233  0.6400481509998589  0.6368714575769242 1.0000   
         C         C         1.0       0.8555860731344535  0.6314780050817236  0.6168071418723308 1.0000   
         C         C         1.0       0.8820709395491427  0.6565150094352024  0.6034608853290993 1.0000   
         C         C         1.0       0.8991395907963589  0.6886321502634843  0.6114808237259161 1.0000   
         C         C         1.0       0.8918087806574356  0.7748350019228941  0.6613868593481174 1.0000   
         C         C         1.0       0.871597228003073   0.7838083847961058  0.6711820385101784 1.0000   
         C         C         1.0       0.8354976171222207  0.7643689099355973  0.6676163598508585 1.0000   
         C         C         1.0       0.8218579334139098  0.7361949803247161  0.6542823219405229 1.0000   
         C         C         1.0       0.8425972117426251  0.7266404283882085  0.6460625951922248 1.0000   
         C         C         1.0       0.8786211841290505  0.7450614389158272  0.6504441249731833 1.0000   
         C         C         1.0       0.8122316166401191  0.7741809647057372  0.6822977393027024 1.0000   
         C         C         1.0       0.809664941237583   0.7371352673329233  0.7559161220227683 1.0000   
         C         C         1.0       0.8323005773714656  0.7704593046093708  0.7512350913767823 1.0000   
         C         C         1.0       0.8344114858827028  0.782746480963035   0.7284628249661733 1.0000   
         C         C         1.0       0.8132792920484567  0.7614521669529232  0.71001353866552   1.0000   
         C         C         1.0       0.7942045820059883  0.7282006791093116  0.7135912481687415 1.0000   
         C         C         1.0       0.7902128968541521  0.7156450722256108  0.7374230491497791 1.0000   
         C         C         1.0       0.7739546146227415  0.7626227700654075  0.6727861782640985 1.0000   
         C         C         1.0       0.7670342942631766  0.763059820457182   0.6478915087022241 1.0000   
         C         C         1.0       0.7385861672077616  0.7634104208359616  0.6421538679347865 1.0000   
         C         C         1.0       0.7170107792300084  0.7628668072272365  0.6591945467665704 1.0000   
         C         C         1.0       0.7222289699769545  0.7584643606155532  0.6834162107670675 1.0000   
         C         C         1.0       0.7503808582269009  0.7580984915506875  0.6899386134281759 1.0000   
         C         C         1.0       0.824889886976248   0.8326166059897679  0.6939549627317477 1.0000   
         C         C         1.0       0.8411220434001703  0.8658533245158047  0.6894401317366265 1.0000   
         C         C         1.0       0.851976118449079   0.8785360856090912  0.666468880371256  1.0000   
         C         C         1.0       0.8544166539662624  0.8599228010298007  0.6490893428123857 1.0000   
         C         C         1.0       0.8418411673372068  0.8269342431855253  0.6546966905047628 1.0000   
         C         C         1.0       0.8302075737964508  0.8140078917282468  0.6784162280187914 1.0000   
         H         H         1.0       0.9710652645132403  0.7447522928229005  0.6258566154165462 1.0000   
         H         H         1.0       0.9142357411020496  0.7450108023944169  0.6885793913824974 1.0000   
         H         H         1.0       0.9621053749987062  0.758675976763828   0.7135326096582609 1.0000   
         H         H         1.0       0.015698364952936306          0.7526089615908917 0.6527637857161358 1.0000   
         H         H         1.0       0.8540619083749674  0.6763752919404781  0.6626738463086994 1.0000   
         H         H         1.0       0.8257368372490745  0.6187647353077752  0.6482279960479344 1.0000   
         H         H         1.0       0.8912644216960024  0.6513149474699963  0.5872490509471813 1.0000   
         H         H         1.0       0.921708065499006   0.7085208405134209  0.6012711772097522 1.0000   
         H         H         1.0       0.9200356190180038  0.7928637548615419  0.6641750722941127 1.0000   
         H         H         1.0       0.882928308360984   0.8060588544307256  0.6812618614882631 1.0000   
         H         H         1.0       0.7923508471412734  0.7195858480805293  0.653831374779836  1.0000   
         H         H         1.0       0.8263335666115305  0.7048592597488021  0.6340179348185567 1.0000   
         H         H         1.0       0.8466049122087951  0.7878716050688379  0.765876574730359  1.0000   
         H         H         1.0       0.8515906625254037  0.8084745546734573  0.723336912195984  1.0000   
         H         H         1.0       0.7788288666817894  0.7124984628115748  0.6983642561782017 1.0000   
         H         H         1.0       0.7702967970576479  0.6889988327924188  0.7410048766719849 1.0000   
         H         H         1.0       0.7847481909058877  0.7655776135696807  0.6340860474884287 1.0000   
         H         H         1.0       0.7332457580957531  0.7651446429673504  0.6234004090985239 1.0000   
         H         H         1.0       0.7090960937617534  0.7633852343612614  0.6986815607776437 1.0000   
         H         H         1.0       0.7567791882930702  0.7617786301279236  0.7089270113611311 1.0000   
         H         H         1.0       0.8111998196699316  0.8227632400651862  0.7118038327081576 1.0000   
         H         H         1.0       0.8429892639396785  0.8822901072574834  0.7032843686321225 1.0000   
         H         H         1.0       0.8665627753003897  0.8703145831513874  0.6321148792271791 1.0000   
         H         H         1.0       0.841340045583981   0.8123675972569616  0.6395805284799024 1.0000   
         C         C         1.0       0.01681134674568696           0.729492472707657  0.7149361652677488 1.0000   
         C         C         1.0       0.02055841651451118           0.7614579808379817 0.7044904653767032 1.0000   
         H         H         1.0       0.042929576015593884          0.7378358174146734 0.7223656738804182 1.0000   
         H         H         1.0       0.009664633694393965          0.7116299375408115 0.7003095518170311 1.0000   
         H         H         1.0       0.04502121751644905           0.774467841307624  0.6940911409792153 1.0000   
         H         H         1.0       0.022677743735364686          0.779780221532512  0.7172770575997761 1.0000   
         C         C         1.0       0.867654915721966   0.9144153965981136  0.6584874470990549 1.0000   
         C         C         1.0       0.8417459789250589  0.9220201603397059  0.655183708670718  1.0000   
         H         H         1.0       0.8859106676368792  0.9300379516059775  0.6736857054765439 1.0000   
         H         H         1.0       0.8812742646837396  0.9188014636919486  0.6413444345683631 1.0000   
         H         H         1.0       0.82238073433664    0.9069414378024269  0.6402131494406226 1.0000   
         H         H         1.0       0.8582285613573668  0.9475936469454851  0.6476181856162692 1.0000   
         C         C         1.0       0.8123506938530922  0.5843873298752958  0.5861357873294594 1.0000   
         C         C         1.0       0.8402264274300265  0.5947619485956076  0.607426598729216  1.0000   
         H         H         1.0       0.7998988525560656  0.5583499319722779  0.5814297134581674 1.0000   
         H         H         1.0       0.7916804430431157  0.5874620045589373  0.5935412270467747 1.0000   
         H         H         1.0       0.8604169971935188  0.5911144736728411  0.6019962222065324 1.0000   
         H         H         1.0       0.8276962458203481  0.5785083677344238  0.6229919606500867 1.0000   
         C         C         1.0       0.6376264925756376  0.9453703940718161  0.7275447506416584 1.0000   
         C         C         1.0       0.6760397585253787  0.9776770430869245  0.7305077545935831 1.0000   
         H         H         1.0       0.6191891384970871  0.9516877256750759  0.7254658625766268 1.0000   
         H         H         1.0       0.6288272853965438  0.9310689964771639  0.7448733601860095 1.0000   
         H         H         1.0       0.6832220869166988  0.9953839392489988  0.7142599888670687 1.0000   
         H         H         1.0       0.6761846168804965  0.9892716483709917  0.7477374222950454 1.0000   
         C         C         1.0       0.7862985341883545  0.036350869808761344         0.6307441163064099 1.0000   
         C         C         1.0       0.8192254143617772  0.045225238046429306         0.61755111949191   1.0000   
         H         H         1.0       0.7766781560389212  0.04989670600438578           0.6226697247844599 1.0000   
         H         H         1.0       0.7967471774061164  0.045133272169131766         0.6501463115733663 1.0000   
         H         H         1.0       0.8356580047417196  0.07189929756850733           0.6186780940830402 1.0000   
         H         H         1.0       0.8338356619119659  0.037223218932743274         0.6288014525038094 1.0000   
         C         C         1.0       0.05065453904528705           0.7158425871400116 0.47642202517859755          1.0000   
         C         C         1.0       0.020081927629895358          0.684434575085933  0.48633487149683025          1.0000   
         H         H         1.0       0.040555485737060026          0.7204610314846641 0.45893433524622046          1.0000   
         H         H         1.0       0.07081720883905573           0.7103139121973684 0.4722029550006352 1.0000   
         H         H         1.0       0.0270584383947714  0.679046709521585   0.5049254959685407 1.0000   
         H         H         1.0       0.020415567327686013          0.6657736051622365 0.4749266300880329 1.0000   
         C         C         1.0       0.7074197969592033  0.8075884291090454  0.6600760291577287 1.0000   
         C         C         1.0       0.6915560574479575  0.7723046161195657  0.6530423839174436 1.0000   
         H         H         1.0       0.7138363978733806  0.8102408792113068  0.681033280362153  1.0000   
         H         H         1.0       0.7355990093681926  0.822937291448486   0.6539090759826861 1.0000   
         H         H         1.0       0.6815216202348101  0.7676631922148311  0.6336707077542808 1.0000   
         H         H         1.0       0.6677190034564139  0.7569805124397156  0.6639706948906907 1.0000   
         C         C         1.0       0.956171832097656   0.818103769509926   0.5517968801085812 1.0000   
         C         C         1.0       0.9739266827973599  0.8070514136650221  0.5357244324401298 1.0000   
         H         H         1.0       0.9754206147350855  0.845258385086991   0.5560342046334148 1.0000   
         H         H         1.0       0.9339713496819292  0.8183487074671448  0.5440505056085133 1.0000   
         H         H         1.0       0.9782151838463656  0.8171031238362519  0.5168227615286236 1.0000   
         H         H         1.0       0.9556445771622064  0.779931864096507   0.5325602255404633 1.0000   
         C         C         1.0       0.7681163708845662  0.70619813198259    0.794151463719562  1.0000   
         C         C         1.0       0.804031542505198   0.7242341699677627  0.782290677403362  1.0000   
         H         H         1.0       0.7682251097003803  0.6953775341417961  0.8109397889909804 1.0000   
         H         H         1.0       0.7467768904964945  0.683948379408357   0.783906629958556  1.0000   
         H         H         1.0       0.8063294747079714  0.7027546724672594  0.7834279779339782 1.0000   
         H         H         1.0       0.8241973381825958  0.7425465161289289  0.7948264883291084 1.0000   
         C         C         1.0       0.6262452974399849  0.7736255968098877  0.7446128067801662 1.0000   
         C         C         1.0       0.6544490315914051  0.7828648499279739  0.7254093323803561 1.0000   
         H         H         1.0       0.6014004656665456  0.7483761821707742  0.741487094028228  1.0000   
         H         H         1.0       0.617910682884862   0.7917336836852648  0.7441029526667687 1.0000   
         H         H         1.0       0.6434518415517413  0.7781117247964393  0.706943327564549  1.0000   
         H         H         1.0       0.6624762646032593  0.7660130230699438  0.72867254395176   1.0000   
         C         C         1.0       0.021677077358879693          0.6445247076836876 0.88074892406862   1.0000   
         C         C         1.0       0.9849431869576668  0.6351079020150218  0.881388670543106  1.0000   
         H         H         1.0       0.027703516695298136          0.6434829883166826 0.8617519477921824 1.0000   
         H         H         1.0       0.018918846006645396          0.6213958757769024 0.8886680999539327 1.0000   
         H         H         1.0       0.9672004463646651  0.6066500528144463  0.8823370483653639 1.0000   
         H         H         1.0       0.936739486981594   0.033666937170383715         0.8770699461324272 1.0000   
         C         C         1.0       0.9044302018422469  0.7757119124203201  0.8106758810943808 1.0000   
         C         C         1.0       0.9339687107116512  0.8112468493117359  0.8189869235864701 1.0000   
         H         H         1.0       0.8931032817713588  0.7753151176817281  0.792251618017583  1.0000   
         H         H         1.0       0.8799681892344833  0.7669975293058535  0.8211315724314745 1.0000   
         H         H         1.0       0.9564199785844892  0.823274702988927   0.805200062949596  1.0000   
         H         H         1.0       0.923281613194278   0.8261520576602022  0.8185813707715484 1.0000   
         C         C         1.0       0.8315125293561518  0.9195157122252171  0.8436057120389112 1.0000   
         C         C         1.0       0.8680007050349754  0.9267020712999686  0.8423110000459453 1.0000   
         H         H         1.0       0.8292345234997187  0.9353186172101995  0.8300936420042053 1.0000   
         H         H         1.0       0.8249881802613507  0.9267086318955177  0.8604069208281293 1.0000   
         H         H         1.0       0.8679122274489326  0.9123698926128134  0.8256859586044776 1.0000   
         H         H         1.0       0.8875116032873279  0.9532197633305399  0.8381309019430924 1.0000   
         C         C         1.0       0.10820143781610181           0.8539981566906291 0.985280081118116  1.0000   
         C         C         1.0       0.11861759749159217           0.8829434211538533 0.967513527167026  1.0000   
         H         H         1.0       0.08111119992577032           0.8452415461832095 0.9918270103148282 1.0000   
         H         H         1.0       0.1273921862532572  0.8660449507326337  0.0007313685244156876        1.0000   
         H         H         1.0       0.14163591194720437           0.890414094271977  0.9552059210705006 1.0000   
         H         H         1.0       0.1265765733694999  0.9053241372302149  0.9773920438272669 1.0000   
         C         C         1.0       0.8568785729445869  0.9975606272494529  0.1858907319545497 1.0000   
         C         C         1.0       0.8791300047318037  0.035552093112079186         0.18671290462811438          1.0000   
         H         H         1.0       0.8344338684175064  0.9918136389779085  0.1732184514385413 1.0000   
         H         H         1.0       0.8474640708447068  0.9861750094994067  0.20400003050360851          1.0000   
         H         H         1.0       0.8967584523573052  0.04588226169281717           0.17004820461010328          1.0000   
         H         H         1.0       0.8598529772036219  0.04106037346578373           0.18292917422057758          1.0000   
         C         C         1.0       0.8748380012310844  0.74382586333695    0.14015683759522976          1.0000   
         C         C         1.0       0.8831378630326866  0.7268580902113013  0.11992886894515191          1.0000   
         H         H         1.0       0.856940943987998   0.7272932396420779  0.15417932453663635          1.0000   
         H         H         1.0       0.8615705841151885  0.7524347728380174  0.12898737880283304          1.0000   
         H         H         1.0       0.8970655087000909  0.7410923723651881  0.10417809749889831          1.0000   
         H         H         1.0       0.8589684960463383  0.7078042952532331  0.10896643959353561          1.0000   
         C         C         1.0       0.6420310863068511  0.9072716254599487  0.2764312483706413 1.0000   
         C         C         1.0       0.022011549089384186          0.9114896266857848 0.2886691555812148 1.0000   
         H         H         1.0       0.662312693174814   0.9316397591943437  0.2835153920147564 1.0000   
         H         H         1.0       0.6497057689924342  0.9069947970929596  0.25732579778526604          1.0000   
         H         H         1.0       0.011296288374303964          0.9247574352034442 0.2952195179809913 1.0000   
         H         H         1.0       0.01140016282867884           0.8905144183009852 0.3004191323186963 1.0000   
         C         C         1.0       0.5476739404357196  0.6830978872632438  0.28968762968755263          1.0000   
         C         C         1.0       0.04669361970165076           0.7881742206320835 0.22416850073922004          1.0000   
         H         H         1.0       0.558690190303014   0.6831372527333515  0.27213082708151626          1.0000   
         H         H         1.0       0.5381466100704453  0.65916456343263    0.2966004610605474 1.0000   
         H         H         1.0       0.048122007777041675          0.8101950782438971 0.21587445925745777          1.0000   
         H         H         1.0       0.03223147783563318           0.7861134261730924 0.2417034002140641 1.0000   
         C         C         1.0       0.8880375939097038  0.9730477199942917  0.3697845017680695 1.0000   
         C         C         1.0       0.8745754839048314  0.9947147310113855  0.3630917239830429 1.0000   
         H         H         1.0       0.906729122115395   0.9840801838556189  0.38533607310665136          1.0000   
         H         H         1.0       0.9014694117406938  0.96958860449933    0.35400162698653204          1.0000   
         H         H         1.0       0.8463605482609449  0.9815061801686225  0.35932541815191343          1.0000   
         H         H         1.0       0.8781054480967477  0.009766951273506352         0.37979680538110155          1.0000   
         C         C         1.0       0.683121081113249   0.876434605087725   0.48446203599569665          1.0000   
         C         C         1.0       0.695203648545952   0.8535275915321497  0.48322886086211186          1.0000   
         H         H         1.0       0.6669542433630749  0.8743549828669182  0.4683708969304978 1.0000   
         H         H         1.0       0.6664049081869297  0.8688039654502654  0.5014405192489729 1.0000   
         H         H         1.0       0.6708521730608527  0.828428022184147   0.48719458313179964          1.0000   
         H         H         1.0       0.7119950848982175  0.8593633195993381  0.4986615602077592 1.0000   
         C         C         1.0       0.18177348297266116           0.9853975508446225 0.514555218504549  1.0000   
         C         C         1.0       0.2014327976198278  0.9695667576159034  0.5096214497429562 1.0000   
         H         H         1.0       0.17898860746716783           0.9866514978635669 0.5350484747396238 1.0000   
         H         H         1.0       0.19921948033431947           0.011920513650806042         0.5088914813422123 1.0000   
         H         H         1.0       0.22913273490256159           0.985752734753936  0.515264350752483  1.0000   
         H         H         1.0       0.2024065408847262  0.9692646449981819  0.4888715050693941 1.0000   
         C         C         1.0       0.05419216031122853           0.05104027159345814          0.30823512067117376          1.0000   
         C         C         1.0       0.04347347356017872           0.015911973350769992         0.3126807535042822 1.0000   
         H         H         1.0       0.0712840561333905  0.06739711870398435           0.32378148570691206          1.0000   
         H         H         1.0       0.07397660461728961           0.06134426439421481          0.293203520372098  1.0000   
         H         H         1.0       0.06868134611722909           0.022377994855204975         0.31796900090700775          1.0000   
         H         H         1.0       0.03676423014952879           3.404828089093037e-05        0.29625391326600964          1.0000   
         C         C         1.0       0.13870888231424772           0.844683030160126  0.42159371025528447          1.0000   
         C         C         1.0       0.11947102970825063           0.8166015095556065 0.4040748211324068 1.0000   
         H         H         1.0       0.16286380159649627           0.862869273640482  0.41237304672062336          1.0000   
         H         H         1.0       0.1487252125491063  0.8388861047102374  0.4362603098658516 1.0000   
         H         H         1.0       0.12980239562280338           0.8015338552376007 0.4062101613928926 1.0000   
         H         H         1.0       0.09249512989894138           0.7986243251126489 0.4091227881705873 1.0000   
         C         C         1.0       0.8547048552541806  0.7897927177925581  0.3847063042459163 1.0000   
         C         C         1.0       0.8286236846646692  0.7735370353016816  0.4066042620386108 1.0000   
         H         H         1.0       0.8430307711395252  0.7880989552732114  0.36828658472173736          1.0000   
         H         H         1.0       0.8608674886787588  0.7708400497164613  0.38150284463967765          1.0000   
         H         H         1.0       0.8129191985641635  0.7463615682413879  0.4049195453529637 1.0000   
         H         H         1.0       0.8447339168930834  0.7801195382687328  0.4235571715725427 1.0000   
         C         C         1.0       0.9115109689514548  0.808241588214517   0.4787524407033413 1.0000   
         C         C         1.0       0.8859157843982225  0.7736110239049427  0.4668589960555418 1.0000   
         H         H         1.0       0.9021980767581762  0.8224670194350568  0.4729092324741134 1.0000   
         H         H         1.0       0.9080382589646772  0.8078780116821508  0.49893850482202684          1.0000   
         H         H         1.0       0.8891298580531837  0.7769783340930273  0.44655341408840094          1.0000   
         H         H         1.0       0.8590152373684694  0.7667648937601782  0.47043284166292515          1.0000   
         C         C         1.0       0.8777649259190938  0.9246447792028618  0.46811929341764474          1.0000   
         C         C         1.0       0.8946951582470754  0.9514206872957183  0.4879361900557428 1.0000   
         H         H         1.0       0.8574651462419107  0.925282217046501   0.4593706430967577 1.0000   
         H         H         1.0       0.8622223961747384  0.9002125810133194  0.4776396542991794 1.0000   
         H         H         1.0       0.9011369420490514  0.9419474116294402  0.5041773042900023 1.0000   
         H         H         1.0       0.9215022580068588  0.9717618488313462  0.4816067792387037 1.0000   
         C         C         1.0       0.15420740147040735           0.6654983442983466 0.00881168188790693          1.0000   
         C         C         1.0       0.17345613776580238           0.704344244788592  0.012565281409862461         1.0000   
         H         H         1.0       0.056149068923750045          0.3238776577691782 0.9681097396137885 1.0000   
         H         H         1.0       0.07495441384814772           0.32991467939317687          0.996828829566973  1.0000   
         H         H         1.0       0.16745882750288454           0.7072195331334644 0.03181994360500773          1.0000   
         H         H         1.0       0.20019529777699363           0.7142611526698729 0.012617503662219365         1.0000   
         C         C         1.0       0.9617802483141887  0.7015366625700696  0.9563318283544718 1.0000   
         C         C         1.0       0.9670954821706733  0.6809565470531644  0.9375449717134924 1.0000   
         H         H         1.0       0.9730911157087986  0.7022571800588585  0.9745879191515624 1.0000   
         H         H         1.0       0.9351094277710023  0.6869787207791891  0.9623783541332873 1.0000   
         H         H         1.0       0.9458997558570067  0.6691592989947799  0.9241148720257374 1.0000   
         H         H         1.0       0.8762485691097437  0.06588833242711534           0.9553414652965234 1.0000   
         C         C         1.0       0.9428485772358606  0.004391442664335665         0.9974026360499851 1.0000   
         C         C         1.0       0.9394360024904675  0.9731922478039046  0.008110981305631038         1.0000   
         H         H         1.0       0.9642708333858551  0.01623881652933923           0.9836526203823772 1.0000   
         H         H         1.0       0.9176582165383189  0.9950862768462578  0.987474824045641  1.0000   
         H         H         1.0       0.9200507421408345  0.9633439973576833  0.022785769080244433         1.0000   
         H         H         1.0       0.9623218199288849  0.979585039923443   0.018872902344644782         1.0000   
         C         C         1.0       0.04703746172834111           0.10274161269403037          0.15361100606507527          1.0000   
         C         C         1.0       0.020066526511400617          0.1127125052709057 0.15784429014812806          1.0000   
         H         H         1.0       0.06295772302457658           0.10529391587579529          0.17044445035146838          1.0000   
         H         H         1.0       0.06506030362157045           0.11762578951835345          0.13950897840901644          1.0000   
         H         H         1.0       0.03281712704359174           0.13677999218345738          0.16775899884763312          1.0000   
         H         H         1.0       0.0017433572934053565         0.09586083921989363          0.17196934459117896          1.0000   
         C         C         1.0       0.05401779647982896           0.6572156018359308 0.09987929070395567          1.0000   
         C         C         1.0       0.5674201637080585  0.6049445994122117  0.12882935027177153          1.0000   
         H         H         1.0       0.055044143527573475          0.6359043742337099 0.10564904963337993          1.0000   
         H         H         1.0       0.047565304416793186          0.6538967818617257 0.07997678376175356          1.0000   
         H         H         1.0       0.5810322635110098  0.6103825732714473  0.14723206701990438          1.0000   
         H         H         1.0       0.5814407218799603  0.5983813781463073  0.11657792434076712          1.0000   
         C         C         1.0       0.7129111142776938  0.7435616027195393  0.926208639634915  1.0000   
         C         C         1.0       0.7411689643156715  0.7702752203146667  0.9092123438999158 1.0000   
         H         H         1.0       0.7193919442702236  0.725903875695195   0.9280896287113758 1.0000   
         H         H         1.0       0.6860186115305251  0.729730305816834   0.9190996233501896 1.0000   
         H         H         1.0       0.7357401391023435  0.7878222253847754  0.9041581030059995 1.0000   
         H         H         1.0       0.7382228249176183  0.7584283732104004  0.8903513994410561 1.0000   
         C         C         1.0       0.9676857970510939  0.6968713362895751  0.05366245043314399          1.0000   
         C         C         1.0       0.9793735524585139  0.7293403328294787  0.03819118250465503          1.0000   
         H         H         1.0       0.9794115397642944  0.7061065228951879  0.07289662881018844          1.0000   
         H         H         1.0       0.9392856658285614  0.6842873615082545  0.054114627827343664         1.0000   
         H         H         1.0       0.9580200306780166  0.7336789246631401  0.03856471415593621          1.0000   
         H         H         1.0       0.9756729844493246  0.7228637200761225  0.01855589998656093          1.0000   
         C         C         1.0       0.7843861719447532  0.9437227332052769  0.03420342107660179          1.0000   
         C         C         1.0       0.8080313443345537  0.9530495509449315  0.05784370791100368          1.0000   
         H         H         1.0       0.8018321819561317  0.956573073930797   0.018485042259662743         1.0000   
         H         H         1.0       0.7672123334415915  0.9514517659648067  0.03439869326130651          1.0000   
         H         H         1.0       0.8194896987623547  0.9383403839095591  0.0580625811922193 1.0000   
         H         H         1.0       0.7911150797552193  0.9424366105195368  0.07366639362004634          1.0000   
         C         C         1.0       0.6657790490652046  0.8552218549520428  0.16460154309267092          1.0000   
         C         C         1.0       0.6778231246691976  0.8518741968693694  0.1389306924645029 1.0000   
         H         H         1.0       0.6641735303320265  0.8365623430009622  0.17649795557303258          1.0000   
         H         H         1.0       0.6876951951941505  0.880080495381498   0.1708308588349597 1.0000   
         H         H         1.0       0.7056520114676513  0.8608818511956526  0.13988749980017937          1.0000   
         H         H         1.0       0.6799134482130696  0.8696775069669729  0.12609376774932748          1.0000   
         C         C         1.0       0.8636820519611197  0.8390724761888174  0.06084023470495171          1.0000   
         C         C         1.0       0.888928561145481   0.8750897210636893  0.052003077378979475         1.0000   
         H         H         1.0       0.873904007410671   0.8265719585142351  0.05272922594309538          1.0000   
         H         H         1.0       0.8661316668050875  0.8363329265272578  0.08069406880609599          1.0000   
         H         H         1.0       0.8741923730667545  0.8808091252596101  0.03823864201312732          1.0000   
         H         H         1.0       0.909933592008748   0.8801273298671801  0.04075406057793174          1.0000

