data_0
_chemical_formula_structural 
                                        C6H4C38H24C6H4C38H24C6H4C38H24C6H4C38H24C6H4C38H24C6H4C38H24C6H4C38H24C6H4C38H24C6H4C38H24C6H4C38H24C6H4C38H24C6H4C38H24C6H4C38H24C6H4C38H24C6H4C38H24C6H4C38H24C6H4C38H24C6H4C38H24C6H4C38H24C6H4C38H24C6H4C38H24C6H4C38H24C6H4C38H24C6H4C38H24C2H4C2H4C2H4C2H4C2H4C2H4C2H4C2H4C2H4C2H4C2H4C2H4C2H4C2H4C2H4C2H4C2H4C2H4C2H4C2H4C2H4C2H4C2H4C2H4C2H4C2H4C2H4C2H4C2H4C2H4C2H4C2H4C2H4C2H4C2H4C2H4C2H4C2H4C2H4C2H4C2H4C2H4C2H4C2H4C2H4C2H4C2H4C2H4C2H4C2H4C2H4C2H4C2H4C2H4C2H4C2H4C2H4C2H4C2H4C2H4C2H4C2H4C2H4C2H4C2H4C2H4C2H4C2H4C2H4C2H4C2H4C2H4C6H4C38H24C6H4C38H24C6H4C38H24C6H4C38H24C6H4C38H24C6H4C38H24C6H4C38H24C6H4C38H24C6H4C38H24C6H4C38H24C6H4C38H24C6H4C38H24C6H4C38H24C6H4C38H24C6H4C38H24C6H4C38H24C6H4C38H24C6H4C38H24C6H4C38H24C6H4C38H24C6H4C38H24C6H4C38H24C6H4C38H24C6H4C38H24C2H4C2H4C2H4C2H4C2H4C2H4C2H4C2H4C2H4C2H4C2H4C2H4C2H4C2H4C2H4C2H4C2H4C2H4C2H4C2H4C2H4C2H4C2H4C2H4C2H4C2H4C2H4C2H4C2H4C2H4C2H4C2H4C2H4C2H4C2H4C2H4C2H4C2H4C2H4C2H4C2H4C2H4C2H4C2H4C2H4C2H4C2H4C2H4C2H4C2H4C2H4C2H4C2H4C2H4C2H4C2H4C2H4C2H4C2H4C2H4C2H4C2H4C2H4C2H4C2H4C2H4C2H4C2H4C2H4C2H4C2H4C2H4
_chemical_formula_sum                   'C2400 H1920'
_cell_length_a                          54.70430093260196
_cell_length_b                          55.61805755268979
_cell_length_c                          48.40268229159901
_cell_angle_alpha                       90.32417657374495
_cell_angle_beta                        89.08902420198575
_cell_angle_gamma                       122.16100792868973
_space_group_name_H-M_alt               'P 1'
_space_group_IT_number                  1
loop_
  _space_group_symop_operation_xyz
         'x, y, z' 
loop_
  _atom_site_type_symbol
  _atom_site_label
  _atom_site_symmetry_multiplicity
  _atom_site_fract_x
  _atom_site_fract_y
  _atom_site_fract_z
  _atom_site_occupancy
         C         C         1.0       0.5802736177963257  0.27944284919028134           0.34393275357522124          1.0000   
         C         C         1.0       0.6059448280983527  0.28555240382722785           0.3308834504080449 1.0000   
         C         C         1.0       0.6057908938960008  0.26910365093390837           0.30904295966503637          1.0000   
         C         C         1.0       0.5795012824524952  0.24500098381898353           0.3005845123991795 1.0000   
         C         C         1.0       0.5539506835409835  0.23956515646442356           0.31264653653751356          1.0000   
         C         C         1.0       0.5541744326828151  0.25691599682162314           0.3335921838842442 1.0000   
         H         H         1.0       0.6253035668982965  0.3034675316214294  0.33823726418360145          1.0000   
         H         H         1.0       0.6258605061560126  0.2752316558855765  0.2996715410014494 1.0000   
         H         H         1.0       0.5342471194268351  0.22225333340003334           0.30552736226617927          1.0000   
         H         H         1.0       0.5356945074334536  0.2537054378100702  0.34521881625768247          1.0000   
         C         C         1.0       0.5528505328138204  0.18081397582865374           0.31259808696009905          1.0000   
         C         C         1.0       0.5546103996830722  0.18930775824083562           0.2852406622882125 1.0000   
         C         C         1.0       0.5391378859550626  0.16877975720401886           0.26521943150536564          1.0000   
         C         C         1.0       0.5221914788403653  0.14050307894313144           0.2717975500588075 1.0000   
         C         C         1.0       0.5205223233197755  0.13246207133404314           0.2997375559273781 1.0000   
         C         C         1.0       0.5359054906372894  0.15296495529394183           0.31999646787908537          1.0000   
         C         C         1.0       0.5768674493035034  0.22149080160312926           0.27733274252024753          1.0000   
         C         C         1.0       0.6049194770598189  0.22009305748005178           0.2727462711307404 1.0000   
         C         C         1.0       0.6121402879203267  0.21524666690758873           0.24628648333832742          1.0000   
         C         C         1.0       0.6379116655379505  0.21677206010609892           0.2416355703078421 1.0000   
         C         C         1.0       0.6554969436343071  0.21988951467462364           0.26223048284397404          1.0000   
         C         C         1.0       0.6470984775903046  0.2220003454394988  0.2888405463868113 1.0000   
         C         C         1.0       0.6234073967668285  0.22367653145989452           0.2934694616717077 1.0000   
         C         C         1.0       0.5409465370059278  0.22614832931992807           0.24525569432293265          1.0000   
         C         C         1.0       0.5344879613835881  0.2329203865347554  0.2209420536702081 1.0000   
         C         C         1.0       0.5564910872395616  0.2512837764556954  0.20268896368740366          1.0000   
         C         C         1.0       0.5849138486478023  0.264168050871215   0.21145988176561856          1.0000   
         C         C         1.0       0.5899318867882732  0.25630210604261316           0.23598780774831143          1.0000   
         C         C         1.0       0.5686314284447921  0.23509389815144419           0.25217629487450105          1.0000   
         C         C         1.0       0.5478116066435335  0.24845346713875846           0.1715196064704968 1.0000   
         C         C         1.0       0.5354651214891296  0.1656478783929833  0.15598471574947997          1.0000   
         C         C         1.0       0.5118598463415717  0.16757055089585693           0.1536404761560267 1.0000   
         C         C         1.0       0.5161069008142846  0.1944451955471987  0.15645723831589042          1.0000   
         C         C         1.0       0.5423827659154167  0.21797730891438252           0.16339287162744273          1.0000   
         C         C         1.0       0.5653057148400128  0.21449106594839812           0.16433007012715248          1.0000   
         C         C         1.0       0.5624085796812925  0.18886692729772678           0.1605695195956437 1.0000   
         C         C         1.0       0.5712642642085757  0.2724049075276081  0.15096577638061262          1.0000   
         C         C         1.0       0.583610706789786   0.30223966579159256           0.15675612807550338          1.0000   
         C         C         1.0       0.6007294055162942  0.3232938690994302  0.13809723885421396          1.0000   
         C         C         1.0       0.60688798137405    0.31642724157425617           0.11265047897229262          1.0000   
         C         C         1.0       0.5983220018078504  0.2886169209417155  0.107431890874947  1.0000   
         C         C         1.0       0.5790366205223847  0.26697675851067215           0.1257842701662549 1.0000   
         C         C         1.0       0.5087822008561432  0.24720821388297928           0.13956713650523533          1.0000   
         C         C         1.0       0.4883820250981768  0.254031040341136   0.13344398415651243          1.0000   
         C         C         1.0       0.4785823420032575  0.26417600709321365           0.15340532097860174          1.0000   
         C         C         1.0       0.4879701255956112  0.2664619396830661  0.18052606945358135          1.0000   
         C         C         1.0       0.5097035344967684  0.2617926805058614  0.18618990551634199          1.0000   
         C         C         1.0       0.5202174069346138  0.2507013314312644  0.16652809278283293          1.0000   
         H         H         1.0       0.5647738884564384  0.1959369478795911  0.32871896469213785          1.0000   
         H         H         1.0       0.5402694666880555  0.17434706066152234           0.24312701862312092          1.0000   
         H         H         1.0       0.5098136225033614  0.12426706878657062           0.2562263203453227 1.0000   
         H         H         1.0       0.5342121466809701  0.14856766255355178           0.3426302543141237 1.0000   
         H         H         1.0       0.5980199510553718  0.20921039068389788           0.22922666949645046          1.0000   
         H         H         1.0       0.6404795032816457  0.2122731455648058  0.22021901206392652          1.0000   
         H         H         1.0       0.6592900004413021  0.22324827554510182           0.30720462517379826          1.0000   
         H         H         1.0       0.6165941278769173  0.225640125709205   0.31380750440836636          1.0000   
         H         H         1.0       0.5235077845466198  0.20704696219676258           0.25672505786146904          1.0000   
         H         H         1.0       0.5127705358257364  0.22059992666456282           0.21397535506132698          1.0000   
         H         H         1.0       0.6037524603387333  0.2797033179040705  0.19858317512422452          1.0000   
         H         H         1.0       0.6121737000919326  0.2694904720520429  0.24485851538685965          1.0000   
         H         H         1.0       0.4917997534789887  0.15010742927576065           0.1458532806159349 1.0000   
         H         H         1.0       0.4969413222594448  0.19483536786970904           0.15205964779930356          1.0000   
         H         H         1.0       0.5876723345007117  0.23257580194686517           0.16868363629421648          1.0000   
         H         H         1.0       0.5826487926057733  0.18890240465232064           0.1624855067936419 1.0000   
         H         H         1.0       0.581313205592856   0.30890672475209874           0.1766435051826778 1.0000   
         H         H         1.0       0.6052997926165958  0.34483375162301494           0.14311037306059132          1.0000   
         H         H         1.0       0.6026926524464135  0.284312203745779   0.08650795270460065          1.0000   
         H         H         1.0       0.5677994442897243  0.24615716949767044           0.11734092745613818          1.0000   
         H         H         1.0       0.5178598575325524  0.241425462853311   0.12244238529864666          1.0000   
         H         H         1.0       0.48000439603995904           0.24911752499456347          0.11336440434915993          1.0000   
         H         H         1.0       0.4807573165197872  0.27453326483470475           0.19704465582507866          1.0000   
         H         H         1.0       0.520350175346871   0.26616647973341023           0.20603631608906392          1.0000   
         C         C         1.0       0.5967555171546274  0.312400228016527   0.040787804624598856         1.0000   
         C         C         1.0       0.6167459160800339  0.31901365264302745           0.01997070088156239          1.0000   
         C         C         1.0       0.6150963177810117  0.2985805620515592  0.004110902263092964         1.0000   
         C         C         1.0       0.5925547479237443  0.2700087072104342  0.007363088297972054         1.0000   
         C         C         1.0       0.5713555167766542  0.26332184626849287           0.028364241774868626         1.0000   
         C         C         1.0       0.5757636718423479  0.28485750367265245           0.04591486942270795          1.0000   
         H         H         1.0       0.6347224613867367  0.34128213573389243           0.01817019636725492          1.0000   
         H         H         1.0       0.5567815194246568  0.24600322341585967           0.5928580762120296 1.0000   
         H         H         1.0       0.5544563617748242  0.24171874290994655           0.03365194868044519          1.0000   
         H         H         1.0       0.5599314346206626  0.2795521342323521  0.06204349975920264          1.0000   
         C         C         1.0       0.5781133375626515  0.20760431163235027           0.02692680764898348          1.0000   
         C         C         1.0       0.5281543670444471  0.15765460071854523           0.5816738622386021 1.0000   
         C         C         1.0       0.5167505493889428  0.13951423868254184           0.558678735510967  1.0000   
         C         C         1.0       0.5085420796097075  0.11170107492248167           0.559557065848184  1.0000   
         C         C         1.0       0.5539066570479946  0.1583510831773396  0.015590213255245901         1.0000   
         C         C         1.0       0.5655013310375578  0.18011180005085775           0.034888382501610415         1.0000   
         C         C         1.0       0.5398196610072467  0.19085615661158853           0.579451134190996  1.0000   
         C         C         1.0       0.5727981790901459  0.2034119924819238  0.5822293412976954 1.0000   
         C         C         1.0       0.5880477428070128  0.19775784684586553           0.5631836701188199 1.0000   
         C         C         1.0       0.6160445246524724  0.2052442321929206  0.5658506774045766 1.0000   
         C         C         1.0       0.6322504108849157  0.2215535765953297  0.5875357937382873 1.0000   
         C         C         1.0       0.6175451714194502  0.22816608184574275           0.6069111555044733 1.0000   
         C         C         1.0       0.5889135344300555  0.21751766262895342           0.605125543028119  1.0000   
         C         C         1.0       0.4995736679933759  0.1852743211821896  0.548352731943764  1.0000   
         C         C         1.0       0.4890692983011482  0.18603703035670938           0.5225081839309897 1.0000   
         C         C         1.0       0.5081462656445628  0.20195637961039367           0.5002774901644019 1.0000   
         C         C         1.0       0.5365446779441752  0.21667310684818314           0.5068175907399187 1.0000   
         C         C         1.0       0.547950399609805   0.21436560693204837           0.5310202777822247 1.0000   
         C         C         1.0       0.5295853263600996  0.1979778040588335  0.5519811262872081 1.0000   
         C         C         1.0       0.49622741497702877           0.199480879613971  0.47099948716266526          1.0000   
         C         C         1.0       0.46648564177919954           0.1103823143364845 0.45825073902151325          1.0000   
         C         C         1.0       0.4456947570139422  0.11786097948078664           0.46310755385148206          1.0000   
         C         C         1.0       0.45450052969130406           0.14531543864823732          0.46714194122490393          1.0000   
         C         C         1.0       0.48362574561226807           0.1667321408023077 0.46511144516163955          1.0000   
         C         C         1.0       0.5035105076401527  0.15890523790889546           0.46083496745129315          1.0000   
         C         C         1.0       0.49494296575706365           0.13060918496207502          0.460197295715674  1.0000   
         C         C         1.0       0.5188513021902647  0.2204147867087306  0.44695513768738365          1.0000   
         C         C         1.0       0.5301919624438274  0.2497736852144041  0.45205335666660845          1.0000   
         C         C         1.0       0.552885508884386   0.2701772939191953  0.4362200781767793 1.0000   
         C         C         1.0       0.5613564301299026  0.26232145116095223           0.412670627518113  1.0000   
         C         C         1.0       0.5495866353700523  0.2340282494254448  0.40554109560387763          1.0000   
         C         C         1.0       0.5286261232340166  0.2132718423258277  0.42304294108580415          1.0000   
         C         C         1.0       0.4538254466496881  0.20003749731199952           0.44941958100107116          1.0000   
         C         C         1.0       0.43247038566601087           0.20610644480654589          0.45001625698127795          1.0000   
         C         C         1.0       0.4302645612025332  0.22055483945696158           0.4715131829258456 1.0000   
         C         C         1.0       0.4494732450492631  0.2296229076484236  0.49205491090109   1.0000   
         C         C         1.0       0.468121199158082   0.22189071987506775           0.4928596247371666 1.0000   
         C         C         1.0       0.47180778459530054           0.20715666132062371          0.47131228247236456          1.0000   
         H         H         1.0       0.5900301421115008  0.22482712833801147           0.04114318658726335          1.0000   
         H         H         1.0       0.5132230387973161  0.1477568979034802  0.5394054095759954 1.0000   
         H         H         1.0       0.5001798583674261  0.09647351772999642           0.5417208109290599 1.0000   
         H         H         1.0       0.5660472821232191  0.17286040366362126           0.05504702378867637          1.0000   
         H         H         1.0       0.5774260527948697  0.18412389496395293           0.5466712863470217 1.0000   
         H         H         1.0       0.6230521382186414  0.19455592976420172           0.5505321769455159 1.0000   
         H         H         1.0       0.6285613284173903  0.23947855414141034           0.624897635324655  1.0000   
         H         H         1.0       0.5783304719523228  0.21993570145176095           0.623212402039062  1.0000   
         H         H         1.0       0.4840736280685962  0.17376659807652337           0.56502956257167   1.0000   
         H         H         1.0       0.4664217497441961  0.17275475454441278           0.5203922842436745 1.0000   
         H         H         1.0       0.5523971568446966  0.23255984201424976           0.49394627271652647          1.0000   
         H         H         1.0       0.5710012893991439  0.22668531601594943           0.5330750089770764 1.0000   
         H         H         1.0       0.4233276676179654  0.10200226549672771           0.4647944495084585 1.0000   
         H         H         1.0       0.4367861969489575  0.14896135823179518           0.4701547740408846 1.0000   
         H         H         1.0       0.5264234072271207  0.17675005623577783           0.46152922713950945          1.0000   
         H         H         1.0       0.5110735643169882  0.12490414448970305           0.45935869138330154          1.0000   
         H         H         1.0       0.5248042464984976  0.25637401531097215           0.4705433122230201 1.0000   
         H         H         1.0       0.5619971047047313  0.29194137800642844           0.4416380147698878 1.0000   
         H         H         1.0       0.5589087892176193  0.22903488350742765           0.3895293919451759 1.0000   
         H         H         1.0       0.5204328102372678  0.19229608837712467           0.4135901455912005 1.0000   
         H         H         1.0       0.4538984934190772  0.1873353269571636  0.43235088104656033          1.0000   
         H         H         1.0       0.41989222509402135           0.2020435001252398 0.4318778666551208 1.0000   
         H         H         1.0       0.4885058854185746  0.29216209825952844           0.9535903053411526 1.0000   
         H         H         1.0       0.4846291173997805  0.2314017468934883  0.5088098701938629 1.0000   
         C         C         1.0       0.8521377639908735  0.28401970371924384           0.1630315337368626 1.0000   
         C         C         1.0       0.8348488622777964  0.2863907156617976  0.18237272375467242          1.0000   
         C         C         1.0       0.8155025854026838  0.2624065565571326  0.19833382641438801          1.0000   
         C         C         1.0       0.8140391886270796  0.2370649021931393  0.19629247073390016          1.0000   
         C         C         1.0       0.8325274426086933  0.23611247544971084           0.1780596906121169 1.0000   
         C         C         1.0       0.8511944341433005  0.25837090170123655           0.16181809998047061          1.0000   
         H         H         1.0       0.8360589861360982  0.307138345043922   0.18471031438471702          1.0000   
         H         H         1.0       0.8000332517921419  0.263304065220472   0.21129966888511423          1.0000   
         H         H         1.0       0.8369364758850274  0.21957979111523476           0.17925307176041566          1.0000   
         H         H         1.0       0.8685773978516486  0.25770820403112477           0.14926197738003455          1.0000   
         C         C         1.0       0.7773910470120393  0.17219082021369866           0.18132285913044555          1.0000   
         C         C         1.0       0.7864999062615852  0.18172821730394834           0.20764704139380796          1.0000   
         C         C         1.0       0.7831641916313442  0.1615497559926623  0.22601919083749825          1.0000   
         C         C         1.0       0.7733907813843625  0.1344280454928562  0.21845348988744118          1.0000   
         C         C         1.0       0.764722707913727   0.1256587820145707  0.19238384498299874          1.0000   
         C         C         1.0       0.7692274568495604  0.14599878147006312           0.17273658594643176          1.0000   
         C         C         1.0       0.7939073778597489  0.21248447098017642           0.21740590217807124          1.0000   
         C         C         1.0       0.7632910903242991  0.2067711102003971  0.2228433676003149 1.0000   
         C         C         1.0       0.7494007075184319  0.19447101012737983           0.2483919072897862 1.0000   
         C         C         1.0       0.7219248213466125  0.1901324066700204  0.25370737946565536          1.0000   
         C         C         1.0       0.7090202478186635  0.1980327320995172  0.23504387135083357          1.0000   
         C         C         1.0       0.7215410338516214  0.20716920607016867           0.20823663334498993          1.0000   
         C         C         1.0       0.749369492012266   0.21278112550258035           0.20390821062658507          1.0000   
         C         C         1.0       0.8384316600167846  0.22055026981055545           0.24698152630220419          1.0000   
         C         C         1.0       0.853509084183271   0.22849042858219695           0.27083929273964696          1.0000   
         C         C         1.0       0.845480677969553   0.23911917944070246           0.29311161901956473          1.0000   
         C         C         1.0       0.8255913637925089  0.24646080017751915           0.2889319298864773 1.0000   
         C         C         1.0       0.8108222316472636  0.239062381491266   0.2658301285555104 1.0000   
         C         C         1.0       0.8142536439716417  0.22341413367967866           0.24426471812580391          1.0000   
         C         C         1.0       0.8544106420622172  0.2384135704306706  0.32393933474112274          1.0000   
         C         C         1.0       0.8025579993655422  0.14571800984103145           0.3218780502592676 1.0000   
         C         C         1.0       0.8321087399758115  0.1595614237567327  0.3209309049927271 1.0000   
         C         C         1.0       0.8495009396886123  0.1887059441441045  0.3237195213888065 1.0000   
         C         C         1.0       0.8367840682361938  0.2045288135240416  0.32757119062212564          1.0000   
         C         C         1.0       0.8065965116168804  0.19072167685831304           0.3284283867709581 1.0000   
         C         C         1.0       0.790735004736379   0.16233053876107015           0.3247144778150285 1.0000   
         C         C         1.0       0.8456649366811717  0.25351654884036234           0.3469152288556878 1.0000   
         C         C         1.0       0.855603607680006   0.28240871742804896           0.3446404600625481 1.0000   
         C         C         1.0       0.8494395747473594  0.2951161127225541  0.36343584291170683          1.0000   
         C         C         1.0       0.829877188571028   0.2810863104659165  0.38444989145804076          1.0000   
         C         C         1.0       0.8222442302857865  0.2538630441360678  0.3882601145718077 1.0000   
         C         C         1.0       0.8312454031774826  0.24019040078178336           0.37108575466498284          1.0000   
         C         C         1.0       0.8972386120639263  0.2478764373069992  0.35484492397915623          1.0000   
         C         C         1.0       0.9259266114523678  0.2652585753274068  0.362215314472223  1.0000   
         C         C         1.0       0.9456415375031905  0.28612200684433653           0.34515052362151605          1.0000   
         C         C         1.0       0.9366871547465435  0.28832198690200084           0.3197004545285547 1.0000   
         C         C         1.0       0.9082660183038028  0.2734717458719572  0.31280655721226136          1.0000   
         C         C         1.0       0.8884799024582926  0.25312533778663904           0.3295628107594261 1.0000   
         H         H         1.0       0.779341353164155   0.18791539875166227           0.16709268809929498          1.0000   
         H         H         1.0       0.7859513019814679  0.1644546095632399  0.24733314316334187          1.0000   
         H         H         1.0       0.7714065325051267  0.11823579295237809           0.23497155234004513          1.0000   
         H         H         1.0       0.7691076158331777  0.14332946312625985           0.1512346612899212 1.0000   
         H         H         1.0       0.7570292383141819  0.18649713199188944           0.26330602403637665          1.0000   
         H         H         1.0       0.7106051225354598  0.1814080172808404  0.2736718666136305 1.0000   
         H         H         1.0       0.7086003335016511  0.2081303406488496  0.19219609265719412          1.0000   
         H         H         1.0       0.7583855519660607  0.22097796919928642           0.18430199736493816          1.0000   
         H         H         1.0       0.8436358128295651  0.21098588298424403           0.23110746118601183          1.0000   
         H         H         1.0       0.8715750536756096  0.2252720903262147  0.2708262901055967 1.0000   
         H         H         1.0       0.8164892624727554  0.2533759895559012  0.3047037612599376 1.0000   
         H         H         1.0       0.796750656931964   0.24699246841997724           0.2615844791781504 1.0000   
         H         H         1.0       0.8429123567237913  0.14736305187670226           0.31959834321300434          1.0000   
         H         H         1.0       0.8721028857787442  0.1992725410358271  0.31760609988727695          1.0000   
         H         H         1.0       0.7954859068753802  0.20312731853848792           0.3296442316283449 1.0000   
         H         H         1.0       0.7677952220577003  0.1496820973422524  0.32499227628025384          1.0000   
         H         H         1.0       0.8703371777771902  0.2937600995738018  0.3266643873430332 1.0000   
         H         H         1.0       0.8568014829470905  0.3167190300076943  0.35962654856175735          1.0000   
         H         H         1.0       0.80584864576461    0.24031104453588706           0.4041952823326648 1.0000   
         H         H         1.0       0.8242864127507299  0.21852461527649547           0.37532297621767996          1.0000   
         H         H         1.0       0.8777244669824312  0.23359547569758962           0.3689891630673364 1.0000   
         H         H         1.0       0.9316753885184658  0.26343873658928396           0.38201169244073907          1.0000   
         H         H         1.0       0.9526474695901513  0.30420975595981514           0.30508180253168904          1.0000   
         H         H         1.0       0.9014836102362436  0.27912009274103927           0.2945468452263743 1.0000   
         C         C         1.0       0.8060126620396784  0.2727691927035305  0.4533158671353377 1.0000   
         C         C         1.0       0.7829543393488138  0.27247578262634986           0.466512902222883  1.0000   
         C         C         1.0       0.7656231952149978  0.2506569164556887  0.4841286911261582 1.0000   
         C         C         1.0       0.7705830073600639  0.22970628714381944           0.49073481337762803          1.0000   
         C         C         1.0       0.7920699708657554  0.2283981707894403  0.47563546144441177          1.0000   
         C         C         1.0       0.8095588123405011  0.24972980835401545           0.458017298738298  1.0000   
         H         H         1.0       0.7821510256611461  0.29156593912144246           0.4659468754612089 1.0000   
         H         H         1.0       0.7494169623475937  0.2519377257662778  0.4938901059850085 1.0000   
         H         H         1.0       0.794000605309101   0.20946903759057925           0.4774376812547311 1.0000   
         H         H         1.0       0.8271006659032213  0.25117745573038813           0.4474758661212481 1.0000   
         C         C         1.0       0.728997767012966   0.16904138462501778           0.47233662532513015          1.0000   
         C         C         1.0       0.7278344761353531  0.17421049012032727           0.5002546507361646 1.0000   
         C         C         1.0       0.7044827486855774  0.15292997786294144           0.5151303808203811 1.0000   
         C         C         1.0       0.6882002710933415  0.12657005180219474           0.5055737370519613 1.0000   
         C         C         1.0       0.6936837705039071  0.12155018818501774           0.47923930941564696          1.0000   
         C         C         1.0       0.7109058591314592  0.14201210122127375           0.460719907227533  1.0000   
         C         C         1.0       0.7506650925585627  0.2051650832176051  0.5142917198307847 1.0000   
         C         C         1.0       0.7338926672476682  0.21626362219308856           0.5332163305532935 1.0000   
         C         C         1.0       0.7456467339647687  0.2333379776038502  0.5556896301266402 1.0000   
         C         C         1.0       0.7300694759461617  0.24216499244082398           0.5713295469796035 1.0000   
         C         C         1.0       0.7046637844903939  0.23756861802478058           0.5625318477980833 1.0000   
         C         C         1.0       0.6933767453321927  0.2210393643783469  0.5387868265546836 1.0000   
         C         C         1.0       0.7063819073086961  0.20901062937842427           0.524556692304363  1.0000   
         C         C         1.0       0.76400338790468    0.17318628779597509           0.5441829986168094 1.0000   
         C         C         1.0       0.7839551461809448  0.16817150638922734           0.5546936206544419 1.0000   
         C         C         1.0       0.8129089592140313  0.18882798770243764           0.5525542092442425 1.0000   
         C         C         1.0       0.8203373016245754  0.21543025748348588           0.5443343040578574 1.0000   
         C         C         1.0       0.7993417845786143  0.220813544605367   0.537485330381694  1.0000   
         C         C         1.0       0.7719187105969479  0.1995822863960361  0.5325529993909026 1.0000   
         C         C         1.0       0.8981679586767939  0.2659201140978043  0.02264303599975626          1.0000   
         C         C         1.0       0.8871868777757556  0.1845005760942539  0.039312131137670715         1.0000   
         C         C         1.0       0.8899277453934172  0.1938832738258193  0.012754008162531917         1.0000   
         C         C         1.0       0.8925791224922173  0.218624953640496   0.00864093443078251          1.0000   
         C         C         1.0       0.8940943607682648  0.23601490337121425           0.029799356138289435         1.0000   
         C         C         1.0       0.8950812823242333  0.22692400832696463           0.057110564325714895         1.0000   
         C         C         1.0       0.8896005508029549  0.20014240914444406           0.06204078393201915          1.0000   
         C         C         1.0       0.8907771455609196  0.27978902656698085           0.047708034853732886         1.0000   
         C         C         1.0       0.9077205813162402  0.3086178086101314  0.05486546345726242          1.0000   
         C         C         1.0       0.9011607872424767  0.320595856330442   0.07743835397843345          1.0000   
         C         C         1.0       0.8767335248728277  0.303457622807073   0.0930299931790795 1.0000   
         C         C         1.0       0.858074354860955   0.2756708400104038  0.08437590640439985          1.0000   
         C         C         1.0       0.8658650093657947  0.26441835529109636           0.06353965660454096          1.0000   
         C         C         1.0       0.9545163699391147  0.2920509155787932  0.03235820941532297          1.0000   
         C         C         1.0       0.9823378599524077  0.30067414525473335           0.022990546899395614         1.0000   
         C         C         1.0       0.9887322803122551  0.3033197975857097  0.9961513561155148 1.0000   
         C         C         1.0       0.8657246301474211  0.19904834572287342           0.48157715755858377          1.0000   
         C         C         1.0       0.8485837238671723  0.18989473713351707           0.5052449109497232 1.0000   
         C         C         1.0       0.9318195563529379  0.2824134141110818  0.013890369293210414         1.0000   
         H         H         1.0       0.7422197825088049  0.18538114677394907           0.4583429962829703 1.0000   
         H         H         1.0       0.7008958643927502  0.1555691125677319  0.5366036206398995 1.0000   
         H         H         1.0       0.6720815531006299  0.10797764280000934           0.5185186931031114 1.0000   
         H         H         1.0       0.714275735307625   0.13649158560004487           0.4403890037808939 1.0000   
         H         H         1.0       0.7672247267842688  0.2395703906581951  0.5625659907425373 1.0000   
         H         H         1.0       0.7386034615577404  0.252949655734089   0.59136580948174   1.0000   
         H         H         1.0       0.6740829435216666  0.2191517826446225  0.5317293435753285 1.0000   
         H         H         1.0       0.6949622115388739  0.19608295222413732           0.5062671938095985 1.0000   
         H         H         1.0       0.7431341889380064  0.15427775994865278           0.5443765566166253 1.0000   
         H         H         1.0       0.7766961431845147  0.1466428246017308  0.5623818071807121 1.0000   
         H         H         1.0       0.8420386904943139  0.23142098975182981           0.5437356551072211 1.0000   
         H         H         1.0       0.8066791107680051  0.2421023126036785  0.5298885099373618 1.0000   
         H         H         1.0       0.8925941453684029  0.1822372209934265  0.9965747918981057 1.0000   
         H         H         1.0       0.8948235515904353  0.2265975517357766  0.9881067472328594 1.0000   
         H         H         1.0       0.9009854148771455  0.2415399472632812  0.07559335605333044          1.0000   
         H         H         1.0       0.8921688472972391  0.19404270860179715           0.08220805579795701          1.0000   
         H         H         1.0       0.9271901339649901  0.3229275967574281  0.04374393363003324          1.0000   
         H         H         1.0       0.9142304041312198  0.3427374271334837  0.0813564227356302 1.0000   
         H         H         1.0       0.8382791334244639  0.26389720227504576           0.09613092468281549          1.0000   
         H         H         1.0       0.8496942153559909  0.24163340462540572           0.058718162700858195         1.0000   
         H         H         1.0       0.9489200113135688  0.28833586563321556           0.0532585832705065 1.0000   
         H         H         1.0       0.9968768915044459  0.30247854414628716           0.03844639449911433          1.0000   
         H         H         1.0       0.8575944139822548  0.19499502826568463           0.4618142860977559 1.0000   
         H         H         1.0       0.8264224775759975  0.17893606473854462           0.5033878483275943 1.0000   
         C         C         1.0       0.6539958164320314  0.9071782052523926  0.1924967604691685 1.0000   
         C         C         1.0       0.6356642848074264  0.9142716960507856  0.18109595245142546          1.0000   
         C         C         1.0       0.6452435016173176  0.9350356136244676  0.1606859416385659 1.0000   
         C         C         1.0       0.673797087997141   0.9473725350010381  0.1508139109114275 1.0000   
         C         C         1.0       0.6909755478918723  0.9389454711599805  0.1613423404509329 1.0000   
         C         C         1.0       0.6814106958635855  0.9189423501450709  0.18236943069223768          1.0000   
         H         H         1.0       0.6127006641115206  0.9031623493722981  0.18745130236236024          1.0000   
         H         H         1.0       0.6320271572515486  0.9432701372582636  0.15363465751759683          1.0000   
         H         H         1.0       0.7131760688077572  0.9475195044335096  0.1550634774841805 1.0000   
         H         H         1.0       0.6920541566237545  0.9073319289214252  0.1887002718348909 1.0000   
         C         C         1.0       0.6744256703965557  0.004813099929852793         0.16296177018282795          1.0000   
         C         C         1.0       0.694187549408426   0.996826660983701   0.15455534001941296          1.0000   
         C         C         1.0       0.7206022367022159  0.008106553619043666         0.16713455902881863          1.0000   
         C         C         1.0       0.7292821877696902  0.03058237456175461           0.18402447353174842          1.0000   
         C         C         1.0       0.7127406980083077  0.04148599383326901           0.18843897789343353          1.0000   
         C         C         1.0       0.6840283817814506  0.027383167573378445         0.18063200296828805          1.0000   
         C         C         1.0       0.6842414275487777  0.9739558246146107  0.13130191551233864          1.0000   
         C         C         1.0       0.6606821617685917  0.968672055556045   0.10810308347124481          1.0000   
         C         C         1.0       0.6451509220391562  0.9431826726593031  0.09368339516611975          1.0000   
         C         C         1.0       0.6232635914464224  0.9383244998105307  0.07520405253468997          1.0000   
         C         C         1.0       0.6150178246740481  0.9574845570063858  0.07363739853982063          1.0000   
         C         C         1.0       0.6326094309924857  0.9841398336448701  0.08458672911104446          1.0000   
         C         C         1.0       0.6553495363661946  0.9891538078299533  0.1009670746839178 1.0000   
         C         C         1.0       0.7244949945478765  0.00937448368002225           0.0987681412674359 1.0000   
         C         C         1.0       0.7473558059308691  0.01851269684367196           0.08205826253010363          1.0000   
         C         C         1.0       0.7564953922984292  0.99977855501858    0.07502332137350953          1.0000   
         C         C         1.0       0.741971616122268   0.9729163193012322  0.08517113535058665          1.0000   
         C         C         1.0       0.7174549168142575  0.962558065869846   0.1000990158761624 1.0000   
         C         C         1.0       0.709997655620303   0.981967766455536   0.11092296538520321          1.0000   
         C         C         1.0       0.7830518274623014  0.011382271295439672         0.053630560569050495         1.0000   
         C         C         1.0       0.8330693803114326  0.10336374481733342           0.0420042016219998 1.0000   
         C         C         1.0       0.8268311223008458  0.09226372124749307           0.06720323593933211          1.0000   
         C         C         1.0       0.8128159038784976  0.06377564403189129           0.0715993501374513 1.0000   
         C         C         1.0       0.8023479465583973  0.045237668213691906         0.048779283248844674         1.0000   
         C         C         1.0       0.7610511855824735  0.9738652184667301  0.5941160851081058 1.0000   
         C         C         1.0       0.7796640731140226  0.0026016263609436323        0.5901810912879989 1.0000   
         C         C         1.0       0.7013818060882527  0.9165279745192381  0.5924459581552559 1.0000   
         C         C         1.0       0.6896181748088273  0.8876964726817296  0.5863364463282441 1.0000   
         C         C         1.0       0.6788785666252859  0.8765352210802667  0.5610951052616444 1.0000   
         C         C         1.0       0.6743137197467883  0.8934482450930299  0.5435504632834726 1.0000   
         C         C         1.0       0.6830544403718698  0.921583332070876   0.5489944640656965 1.0000   
         C         C         1.0       0.6969721317650936  0.9321690520514841  0.5740244132268305 1.0000   
         C         C         1.0       0.8266287856755796  0.007333663251938738         0.04457887752218105          1.0000   
         C         C         1.0       0.8495228046001456  0.00559065171909201           0.05188046049675952          1.0000   
         C         C         1.0       0.8516592526698837  0.9996632174414005  0.0786049481993662 1.0000   
         C         C         1.0       0.8321639665494355  0.9978636245472279  0.0983679453884719 1.0000   
         C         C         1.0       0.8115184276614726  0.002639420569760853         0.09096375267839507          1.0000   
         C         C         1.0       0.8062995818308504  0.0053800607648577525        0.06313768515874316          1.0000   
         H         H         1.0       0.6524720893443887  0.992240119261921   0.1568081513803233 1.0000   
         H         H         1.0       0.7367852651678888  0.003568632403170069         0.1612207481283674 1.0000   
         H         H         1.0       0.749688496311724   0.03928128955081167           0.1932826866924401 1.0000   
         H         H         1.0       0.6701787811897496  0.03588217963714113           0.1844569360522452 1.0000   
         H         H         1.0       0.651303426320127   0.9279536207398481  0.09654162216649202          1.0000   
         H         H         1.0       0.6114982485218502  0.9178345901004017  0.0643981448230608 1.0000   
         H         H         1.0       0.6279568757384384  0.0011527137630591433        0.07941574132775243          1.0000   
         H         H         1.0       0.6690635554038694  0.010856655623594724         0.10670654408558398          1.0000   
         H         H         1.0       0.7163593993704795  0.022752689365381995         0.10389993982721762          1.0000   
         H         H         1.0       0.7559945010406531  0.03900554856243499           0.07375651607903744          1.0000   
         H         H         1.0       0.7491439932230197  0.9589684093753931  0.07990363861851696          1.0000   
         H         H         1.0       0.7095860908667098  0.9415793188807421  0.10778190986654938          1.0000   
         H         H         1.0       0.8323137451783642  0.10564990334388408           0.08426715666841646          1.0000   
         H         H         1.0       0.8074426249894394  0.055321264951277094         0.09304556982962321          1.0000   
         H         H         1.0       0.7599618529213443  0.9592297660622842  0.5776407167534223 1.0000   
         H         H         1.0       0.7907187389070874  0.011178230546885935         0.5700361784643047 1.0000   
         H         H         1.0       0.6886036041501428  0.8736701083591212  0.600518196703166  1.0000   
         H         H         1.0       0.6721586444629218  0.8547270473289582  0.5544051450143559 1.0000   
         H         H         1.0       0.6802053696702592  0.9344730781782064  0.5342117814069471 1.0000   
         H         H         1.0       0.7030967264390637  0.9533063767811655  0.57786232657932   1.0000   
         H         H         1.0       0.8244970021296169  0.010363680420099941         0.022877632879876098         1.0000   
         H         H         1.0       0.8649650050540093  0.008356084852602974         0.035151571668585735         1.0000   
         H         H         1.0       0.8355298020991253  0.9939268228376515  0.11854732515745142          1.0000   
         H         H         1.0       0.7988941616265789  0.004890218979225702         0.10625465294096721          1.0000   
         C         C         1.0       0.6739946308992946  0.9108268696841411  0.4727267703951561 1.0000   
         C         C         1.0       0.6522527485908163  0.9016846907871374  0.45404195158455324          1.0000   
         C         C         1.0       0.6497837840041312  0.9210545357300827  0.43962097565931973          1.0000   
         C         C         1.0       0.6694236233716118  0.9495847334250032  0.4414792342803192 1.0000   
         C         C         1.0       0.6926923776975658  0.9584342684699055  0.4589259205435545 1.0000   
         C         C         1.0       0.6950862455237861  0.9393980305362986  0.475277164739044  1.0000   
         H         H         1.0       0.6342003890582321  0.8788673451863545  0.45284811909832096          1.0000   
         H         H         1.0       0.6313093728948269  0.9131743308219868  0.4272023300195459 1.0000   
         H         H         1.0       0.7113733918486924  0.9804157117829982  0.4585637832297295 1.0000   
         H         H         1.0       0.7145774673679349  0.9457952456199791  0.48783962648036816          1.0000   
         C         C         1.0       0.6779570077304272  0.005833551005686389         0.4662478711869382 1.0000   
         C         C         1.0       0.6795500809624683  0.003016101393569448         0.4379106806296263 1.0000   
         C         C         1.0       0.6932802884141203  0.029028800735688698         0.4215853577397658 1.0000   
         C         C         1.0       0.70162756897405    0.054191955476742715         0.4345976743851272 1.0000   
         C         C         1.0       0.6970031460521371  0.05518708900136904           0.46248298300016805          1.0000   
         C         C         1.0       0.6843937242951197  0.03133971285914017           0.4776576354615618 1.0000   
         C         C         1.0       0.6664428574976526  0.9720527505090317  0.4243665765792732 1.0000   
         C         C         1.0       0.6355773584962137  0.9660356577919458  0.41835069070224823          1.0000   
         C         C         1.0       0.6296363366906331  0.9774634198780039  0.3956861554222938 1.0000   
         C         C         1.0       0.6020401896155595  0.969073598071063   0.38990438694247137          1.0000   
         C         C         1.0       0.5801097567607826  0.9544128052607823  0.4095479308523168 1.0000   
         C         C         1.0       0.5859000358852898  0.9457892163842914  0.4337363245639109 1.0000   
         C         C         1.0       0.6129623054785517  0.950600138378556   0.4373042005155316 1.0000   
         C         C         1.0       0.7143541692392543  0.9893331709687107  0.3954011407663639 1.0000   
         C         C         1.0       0.7290820356695424  0.9891440154739639  0.37241564483137096          1.0000   
         C         C         1.0       0.7140107353076858  0.9725209573951022  0.34858879082089145          1.0000   
         C         C         1.0       0.6840861478487196  0.956548187518035   0.3507661883717095 1.0000   
         C         C         1.0       0.6695393523970682  0.9549274333392719  0.37542114942141785          1.0000   
         C         C         1.0       0.6847133910471486  0.9725848606433851  0.39710450102798295          1.0000   
         C         C         1.0       0.7323793035257983  0.9764808196684823  0.3198099233123218 1.0000   
         C         C         1.0       0.7609036266365574  0.06432729924663705           0.3006510683973167 1.0000   
         C         C         1.0       0.7808362246789873  0.05596153820960548           0.30492123258781084          1.0000   
         C         C         1.0       0.7718787254248538  0.029601114391609284         0.3143946216857769 1.0000   
         C         C         1.0       0.7425944630825055  0.008479462469357157         0.313537429285569  1.0000   
         C         C         1.0       0.7230442252018204  0.01594252889563852           0.3073639160611989 1.0000   
         C         C         1.0       0.7325808229648815  0.043941595431694624         0.3008853920292318 1.0000   
         C         C         1.0       0.7133461887395993  0.9559722103266187  0.29508330775694697          1.0000   
         C         C         1.0       0.6977256291740473  0.9271305638240985  0.29928272559544394          1.0000   
         C         C         1.0       0.6737575693976195  0.9088198315845695  0.2846949470679749 1.0000   
         C         C         1.0       0.6687049441047298  0.9178265110729288  0.25937625294664984          1.0000   
         C         C         1.0       0.6875329458561011  0.9466454747407471  0.2526930400285095 1.0000   
         C         C         1.0       0.7104875633164509  0.9649350773979269  0.26979091903337127          1.0000   
         C         C         1.0       0.7754338361637126  0.9734127183155455  0.30175924132464094          1.0000   
         C         C         1.0       0.7988978279357053  0.9704244079765669  0.3052173914092183 1.0000   
         C         C         1.0       0.8013227289036299  0.9595427986432514  0.32984714186347586          1.0000   
         C         C         1.0       0.7807123124820117  0.9518594912391971  0.3500785122347653 1.0000   
         C         C         1.0       0.7593977863912341  0.9575726267394884  0.34766421849531065          1.0000   
         C         C         1.0       0.7574030813191688  0.969247932395416   0.3234632508694849 1.0000   
         H         H         1.0       0.66609268877078    0.9873248404042392  0.4776418628229362 1.0000   
         H         H         1.0       0.6930946293250214  0.028805071377153935         0.3990635334018335 1.0000   
         H         H         1.0       0.7086789024557755  0.0725821013872549  0.4226782287175303 1.0000   
         H         H         1.0       0.6823928167153565  0.03300602131881192           0.4998392173040926 1.0000   
         H         H         1.0       0.645120514051685   0.9882221487110324  0.37947261987988984          1.0000   
         H         H         1.0       0.5963506950046422  0.9729230102400446  0.3704815655794651 1.0000   
         H         H         1.0       0.5685014990689713  0.9360650715949187  0.4486548102341381 1.0000   
         H         H         1.0       0.6169866499921925  0.942554666166291   0.45575351995708313          1.0000   
         H         H         1.0       0.7272206127454776  0.00398787301395398           0.41200415940769186          1.0000   
         H         H         1.0       0.752373092520819   0.002048344125528345         0.37350823227642643          1.0000   
         H         H         1.0       0.6695168570454917  0.9453404778589556  0.3342845576083969 1.0000   
         H         H         1.0       0.6462576709334032  0.9415987960304869  0.3741299003357618 1.0000   
         H         H         1.0       0.8033518744277646  0.07198469773053925           0.3030815663391451 1.0000   
         H         H         1.0       0.7901528966195104  0.027083196807803356         0.319193817654624  1.0000   
         H         H         1.0       0.6998668249930107  0.9999656374225495  0.30760238824510855          1.0000   
         H         H         1.0       0.7190280981135465  0.049970003168467336         0.2934452998684673 1.0000   
         H         H         1.0       0.7011885488213636  0.9184510985940522  0.31714683300706875          1.0000   
         H         H         1.0       0.660061280887868   0.8873718715737424  0.2914736507174183 1.0000   
         H         H         1.0       0.686381006343199   0.9538839740257237  0.23360557264261297          1.0000   
         H         H         1.0       0.7231479943310912  0.9879872003796476  0.2648518525436382 1.0000   
         H         H         1.0       0.776324766129401   0.9851332237631505  0.2826737368293736 1.0000   
         H         H         1.0       0.8155048133277875  0.977162364582076   0.2890837802542544 1.0000   
         H         H         1.0       0.7825028958503983  0.9416405339499545  0.3688621873111281 1.0000   
         H         H         1.0       0.744583746106772   0.951849236453994   0.36667115251438953          1.0000   
         C         C         1.0       0.417959027144859   0.9470043147423077  0.009975320298352797         1.0000   
         C         C         1.0       0.4317812513596967  0.9348448269828621  0.021544709821611274         1.0000   
         C         C         1.0       0.45734033396807006           0.9515170059440449 0.033594942037920905         1.0000   
         C         C         1.0       0.471838087915688   0.9805389810848543  0.03430014261693337          1.0000   
         C         C         1.0       0.4596818672102396  0.9927624276068344  0.020830515180438436         1.0000   
         C         C         1.0       0.4324669399920734  0.9765285856675557  0.010448433796891756         1.0000   
         H         H         1.0       0.42256193624820665           0.9129869321777266 0.021124780423428913         1.0000   
         H         H         1.0       0.4681299157510873  0.9420188395796842  0.04359576095379784          1.0000   
         H         H         1.0       0.46981691900370637           0.014489264358742204         0.020444994607875966         1.0000   
         H         H         1.0       0.42190452922786387           0.9862923286491208 0.0017946940769142385        1.0000   
         C         C         1.0       0.5250970914176237  0.03894654195441505           0.012789264184335016         1.0000   
         C         C         1.0       0.5232344571258514  0.03196009602210648           0.04037087854160668          1.0000   
         C         C         1.0       0.5413593472842482  0.05326875946853682           0.058026906530530414         1.0000   
         C         C         1.0       0.5525437745107173  0.07987792928839324           0.05026773118692951          1.0000   
         C         C         1.0       0.5531150996094404  0.08753299727612067           0.02259494040963861          1.0000   
         C         C         1.0       0.538063716228101   0.06538195429120441           0.0040475299646562934        1.0000   
         C         C         1.0       0.5015555188342061  0.00012301372932821408       0.04977297800082136          1.0000   
         C         C         1.0       0.5235075387501438  0.989285324674045   0.04677787012974364          1.0000   
         C         C         1.0       0.5429821962775416  0.9934974948237844  0.06768865690762794          1.0000   
         C         C         1.0       0.5643373454411198  0.9875645494189589  0.06407849393260678          1.0000   
         C         C         1.0       0.5634322725671831  0.9727451595222748  0.041031066899204785         1.0000   
         C         C         1.0       0.5439720930668622  0.9678777616384963  0.01963624352734339          1.0000   
         C         C         1.0       0.5242789258379696  0.9754027777148497  0.02320211654472093          1.0000   
         C         C         1.0       0.47964944597370307           0.018319080246298247         0.08591407491333901          1.0000   
         C         C         1.0       0.4675845111567128  0.018133693839307963         0.11099123663972627          1.0000   
         C         C         1.0       0.4637147081235101  0.9995989446884651  0.132120810405928  1.0000   
         C         C         1.0       0.471612778776337   0.9803517483321967  0.12610543882990505          1.0000   
         C         C         1.0       0.48470157179661727           0.9809542032546459 0.09997156606305983          1.0000   
         C         C         1.0       0.4884294679294482  0.9995312715292539  0.0791326460024632 1.0000   
         C         C         1.0       0.448377207882781   0.9990512939961528  0.16032520074725193          1.0000   
         C         C         1.0       0.5082373421199662  0.08937996363599046           0.18076922091406855          1.0000   
         C         C         1.0       0.47934564687573317           0.07908508386771017          0.17437404354891142          1.0000   
         C         C         1.0       0.46069991233667223           0.05105783581147216          0.16793481301740398          1.0000   
         C         C         1.0       0.46888679644179554           0.03099045194361305          0.16891174103083742          1.0000   
         C         C         1.0       0.49784528777130954           0.04208067516318459          0.17556434842301308          1.0000   
         C         C         1.0       0.5169564657771089  0.07018185679304065           0.1806550426779987 1.0000   
         C         C         1.0       0.4429186183996725  0.9735071212378875  0.1804072451410292 1.0000   
         C         C         1.0       0.42194033136149506           0.9441504390250015 0.17408061135179756          1.0000   
         C         C         1.0       0.4192386670411415  0.9226170603873969  0.18977713909545835          1.0000   
         C         C         1.0       0.43410084397632287           0.9283237320119435 0.21309562467903898          1.0000   
         C         C         1.0       0.4512666732522228  0.9552909594161363  0.22207523688474007          1.0000   
         C         C         1.0       0.45614548603512556           0.9779808078168984 0.20601694456074063          1.0000   
         C         C         1.0       0.40081755509394706           0.993525841975032  0.1772547917811657 1.0000   
         C         C         1.0       0.3767672250589838  0.9945243789857126  0.17371535643697422          1.0000   
         C         C         1.0       0.36598261791270675           0.9918926860443728 0.14753481081582706          1.0000   
         C         C         1.0       0.37936846972343635           0.9878878559479168 0.12582980488109435          1.0000   
         C         C         1.0       0.403366548436225   0.9864830128804996  0.1298721564980429 1.0000   
         C         C         1.0       0.41651923744244207           0.992443285705349  0.15523111893439062          1.0000   
         H         H         1.0       0.4589313401394882  0.9700345918902646  0.5519722081008905 1.0000   
         H         H         1.0       0.5418736740574206  0.048580556510195994         0.0799737044149116 1.0000   
         H         H         1.0       0.5601964237979886  0.09670810605547892           0.06518514583372935          1.0000   
         H         H         1.0       0.4857333773825747  0.0193430135614916  0.5419319670386256 1.0000   
         H         H         1.0       0.5458835955133496  0.007362865303526034         0.08608839301733376          1.0000   
         H         H         1.0       0.5797432108502631  0.9940113993383525  0.08025826287337738          1.0000   
         H         H         1.0       0.4782356924404825  0.8919742101564992  0.5434784715288694 1.0000   
         H         H         1.0       0.5111158788157868  0.9740976854707469  0.006713307721533779         1.0000   
         H         H         1.0       0.48360425367086385           0.03530015936408426          0.07318946356729175          1.0000   
         H         H         1.0       0.4608056566340709  0.032967352064848576         0.1121684740147203 1.0000   
         H         H         1.0       0.4697002681887667  0.9642950125876163  0.1406424186090243 1.0000   
         H         H         1.0       0.49104932361828535           0.9651432437550801 0.09760981465392868          1.0000   
         H         H         1.0       0.4723375535418108  0.09318434290172795           0.17476805530255746          1.0000   
         H         H         1.0       0.43985595200157873           0.04663230930456641          0.16251647716110537          1.0000   
         H         H         1.0       0.5079469341583254  0.030041263643149296         0.17646019728254683          1.0000   
         H         H         1.0       0.5391982817232092  0.07931064937264047           0.18437738322036065          1.0000   
         H         H         1.0       0.40432239721050506           0.9384537529278545 0.1590103954340337 1.0000   
         H         H         1.0       0.40111777969182727           0.9024908594854972 0.1836545430860251 1.0000   
         H         H         1.0       0.46074097160893446           0.9592953685790457 0.24256903545809141          1.0000   
         H         H         1.0       0.4679703366606851  0.9977197519419762  0.2154346555225788 1.0000   
         H         H         1.0       0.4103297805101562  0.9985963486555349  0.19750397162823516          1.0000   
         H         H         1.0       0.3667545074785052  0.9974008178685627  0.19238365109975789          1.0000   
         H         H         1.0       0.37024036819044265           0.9843973637037765 0.10490141196713099          1.0000   
         H         H         1.0       0.4153361335429175  0.984853944634485   0.11182629778034694          1.0000   
         C         C         1.0       0.4153489460639023  0.9093948166478715  0.27830763033966105          1.0000   
         C         C         1.0       0.42506589088677155           0.9005495572159988 0.3003752628081324 1.0000   
         C         C         1.0       0.432954862439205   0.916379648038661   0.3241755826668732 1.0000   
         C         C         1.0       0.43296985081519523           0.94220271492246   0.3258795215462493 1.0000   
         C         C         1.0       0.41888889818832564           0.9474243491443409 0.3048884314901809 1.0000   
         C         C         1.0       0.41004405684403705           0.930264496202922  0.2816632474191835 1.0000   
         H         H         1.0       0.42505255471502246           0.8815528396330823 0.2980715769918978 1.0000   
         H         H         1.0       0.4426963789468594  0.9115439195096544  0.34108432703064395          1.0000   
         H         H         1.0       0.41710503231508755           0.9668448420983732 0.3062457520045987 1.0000   
         H         H         1.0       0.3994288739544383  0.9346016595878397  0.26612409591215647          1.0000   
         C         C         1.0       0.47756409415876305           0.005892850251756121         0.31779878373786763          1.0000   
         C         C         1.0       0.4619363649191706  0.9963749573034459  0.3429637221717215 1.0000   
         C         C         1.0       0.46249024415336987           0.01684958400231995          0.3599226358757891 1.0000   
         C         C         1.0       0.47682700211115503           0.04458674883327628          0.35338347572593504          1.0000   
         C         C         1.0       0.49292739402313496           0.05330761946416019          0.32874852514794367          1.0000   
         C         C         1.0       0.49298641200040844           0.03401176010299767          0.3107629458338452 1.0000   
         C         C         1.0       0.44602404954596325           0.9638469635587277 0.35074388039260174          1.0000   
         C         C         1.0       0.4738234297442597  0.9662384766166525  0.36548791468294445          1.0000   
         C         C         1.0       0.4778965474937115  0.9713149446728387  0.39333677021581814          1.0000   
         C         C         1.0       0.4997726807529893  0.9720509560316604  0.4071360240581789 1.0000   
         C         C         1.0       0.5190426119026339  0.9687029025917867  0.3924935837656193 1.0000   
         C         C         1.0       0.5184084858831033  0.9660608663513988  0.36515204204566987          1.0000   
         C         C         1.0       0.496144498996389   0.9651658333826116  0.3508315843963908 1.0000   
         C         C         1.0       0.39858552006651093           0.9624774531206891 0.36494442169153796          1.0000   
         C         C         1.0       0.3776143842400674  0.9567201018581177  0.3847781861223731 1.0000   
         C         C         1.0       0.3738770075394188  0.941006559810011   0.4081776782471357 1.0000   
         C         C         1.0       0.39119603134033337           0.9300009415669679 0.409907528860392  1.0000   
         C         C         1.0       0.4112351107546189  0.9344809014421294  0.3903527244489243 1.0000   
         C         C         1.0       0.4181705408201993  0.9543047299575597  0.36915973456550993          1.0000   
         C         C         1.0       0.3533479161382182  0.9410057867834605  0.43060365150107716          1.0000   
         C         C         1.0       0.4145607684961205  0.028392731923579495         0.4549599734491629 1.0000   
         C         C         1.0       0.3896551557347995  0.020918177074723543         0.4426052553593846 1.0000   
         C         C         1.0       0.3704056471739471  0.9940329997789689  0.4349283539805749 1.0000   
         C         C         1.0       0.3753770294821259  0.9726046667081454  0.4407928868019344 1.0000   
         C         C         1.0       0.4012715276775025  0.9795158398858651  0.45301664167323036          1.0000   
         C         C         1.0       0.4195216136927511  0.007226329383006824         0.4613920325781921 1.0000   
         C         C         1.0       0.3453552930446486  0.9209085480813322  0.45638059412048204          1.0000   
         C         C         1.0       0.33744108216015417           0.8933068116351605 0.453906015093439  1.0000   
         C         C         1.0       0.33444196990248537           0.8773341205348819 0.47627282713537544          1.0000   
         C         C         1.0       0.3350255549480297  0.8868541942858295  0.5033156553424062 1.0000   
         C         C         1.0       0.33992607414472176           0.9137516376332767 0.5060351283580237 1.0000   
         C         C         1.0       0.3423467938192182  0.9287176338118391  0.483300647692138  1.0000   
         C         C         1.0       0.30599005379254485           0.9446630236526667 0.4312038188317446 1.0000   
         C         C         1.0       0.2827311820163588  0.9427500012586638  0.4189383567069978 1.0000   
         C         C         1.0       0.2702730459923185  0.9247009681860369  0.395670912784882  1.0000   
         C         C         1.0       0.2824057242890752  0.9089079304840131  0.3875000392314361 1.0000   
         C         C         1.0       0.30829997866821107           0.9143486425789158 0.3984102665608788 1.0000   
         C         C         1.0       0.321270897663225   0.9324489018919676  0.41935544524586776          1.0000   
         H         H         1.0       0.4798366739831254  0.9929940999509373  0.3026900778340047 1.0000   
         H         H         1.0       0.4515891313887773  0.00997335382102471           0.37927556034923815          1.0000   
         H         H         1.0       0.4780379923716267  0.06048503518204851           0.3677998288502767 1.0000   
         H         H         1.0       0.5084193231976343  0.040861943412793034         0.2932711437318547 1.0000   
         H         H         1.0       0.4657835437885323  0.9785089341741645  0.4038835197006241 1.0000   
         H         H         1.0       0.5022130558611176  0.9798018630325547  0.4282202329372268 1.0000   
         H         H         1.0       0.5339345321389664  0.9638463092674631  0.3543594384607003 1.0000   
         H         H         1.0       0.49431835208680275           0.9633561951903273 0.32853035964436283          1.0000   
         H         H         1.0       0.4030181882958171  0.9775016577238178  0.349210223299824  1.0000   
         H         H         1.0       0.364997800911975   0.9658869322459696  0.381446806040822  1.0000   
         H         H         1.0       0.39333345774249645           0.9193454981528281 0.42712881557236887          1.0000   
         H         H         1.0       0.4246134987782861  0.9254007219488515  0.39412924957734136          1.0000   
         H         H         1.0       0.3866372263544741  0.038711070130643226         0.4374045858623012 1.0000   
         H         H         1.0       0.35239142661013045           0.9903759953336394 0.4212191730621409 1.0000   
         H         H         1.0       0.40686433605249794           0.9648032743212667 0.45932147747736124          1.0000   
         H         H         1.0       0.4393148533887145  0.013528343717209792         0.47329696130231486          1.0000   
         H         H         1.0       0.3372826662190773  0.8852733808826325  0.4340883671976014 1.0000   
         H         H         1.0       0.33101710105884796           0.8559505410623534 0.4728444650447721 1.0000   
         H         H         1.0       0.34335411875850774           0.9258991754335917 0.5256904099962436 1.0000   
         H         H         1.0       0.34827868774948656           0.9497654909478788 0.48755312030244374          1.0000   
         H         H         1.0       0.312090416402941   0.9569207812426663  0.4516299795043121 1.0000   
         H         H         1.0       0.2722576017272675  0.9542668541098808  0.4259403808423998 1.0000   
         H         H         1.0       0.2735710384739595  0.894237450824945   0.3708160560096797 1.0000   
         H         H         1.0       0.3176659973654099  0.9039226573397283  0.39000766179264096          1.0000   
         C         C         1.0       0.9136267795009828  0.7180814022010109  0.29121260899932927          1.0000   
         C         C         1.0       0.8949598033427312  0.6915551031570677  0.27951580063631604          1.0000   
         C         C         1.0       0.8703979342520848  0.6855087951776061  0.2671462205226974 1.0000   
         C         C         1.0       0.863564894676896   0.7059974761516601  0.2655375936484807 1.0000   
         C         C         1.0       0.8820839629694284  0.7314781849952917  0.2782547178118614 1.0000   
         C         C         1.0       0.906584446720486   0.7379885922652949  0.29110383742768187          1.0000   
         H         H         1.0       0.8996379495721718  0.675757207204353   0.2822810366053749 1.0000   
         H         H         1.0       0.8548208186020243  0.6634119255919844  0.25949998247921224          1.0000   
         H         H         1.0       0.8779252599206744  0.7491256009945354  0.2751380692934523 1.0000   
         H         H         1.0       0.9212615723390258  0.7588172016912538  0.29814858255793986          1.0000   
         C         C         1.0       0.8211776173964589  0.7298373288910792  0.27753254518332127          1.0000   
         C         C         1.0       0.8247531544380037  0.7214195913708852  0.2510562647586722 1.0000   
         C         C         1.0       0.8130368897546861  0.7274936350392316  0.2284506133909947 1.0000   
         C         C         1.0       0.7994602505104503  0.741369059826087   0.232398328464588  1.0000   
         C         C         1.0       0.7976665408255817  0.7510324520993119  0.25783390509617216          1.0000   
         C         C         1.0       0.8073731578667527  0.7445289457303411  0.2803832919537159 1.0000   
         C         C         1.0       0.8365977666892483  0.701024531243726   0.24513040592486257          1.0000   
         C         C         1.0       0.8072508876603341  0.671006272145017   0.24807732349479297          1.0000   
         C         C         1.0       0.7870304767821097  0.6596087790299383  0.22750179873596652          1.0000   
         C         C         1.0       0.7598590700764195  0.6362614744267517  0.2322625095931913 1.0000   
         C         C         1.0       0.7538775057435113  0.6206768423634526  0.25660930434098495          1.0000   
         C         C         1.0       0.7748507951192303  0.6306751335236235  0.2772067401016713 1.0000   
         C         C         1.0       0.8006959810357791  0.6552649723273802  0.2728114962085295 1.0000   
         C         C         1.0       0.8693867733091671  0.7345808501935858  0.20479446514582111          1.0000   
         C         C         1.0       0.8743323170297994  0.7391257388754632  0.17690575248996887          1.0000   
         C         C         1.0       0.864934291198645   0.716789218185944   0.15891591431960125          1.0000   
         C         C         1.0       0.8540956694555308  0.6902077447998382  0.17061820450952606          1.0000   
         C         C         1.0       0.8498131896162424  0.6862306037082716  0.19794032404849465          1.0000   
         C         C         1.0       0.8530818468946081  0.7080949427693431  0.21523565030597536          1.0000   
         C         C         1.0       0.8607006655528534  0.7204883803900064  0.1261769607211442 1.0000   
         C         C         1.0       0.7882512328315346  0.7334123721401706  0.14160835782789705          1.0000   
         C         C         1.0       0.8168469542722843  0.7561632007154935  0.13628859440427413          1.0000   
         C         C         1.0       0.8389019541347758  0.7523545344912088  0.13157816273952744          1.0000   
         C         C         1.0       0.8345044225750816  0.7253164610338239  0.13040368116518172          1.0000   
         C         C         1.0       0.8065550479265959  0.7031185570461512  0.13632925046707314          1.0000   
         C         C         1.0       0.7837561725009357  0.7068025237451395  0.14372421938345784          1.0000   
         C         C         1.0       0.8538981527882491  0.6947118060345495  0.10552307544204009          1.0000   
         C         C         1.0       0.8729883057547725  0.6856786368302724  0.10500703588103538          1.0000   
         C         C         1.0       0.870001742128115   0.6654304234041747  0.08670929362311035          1.0000   
         C         C         1.0       0.8509159780781577  0.6575991258275754  0.06626116099932643          1.0000   
         C         C         1.0       0.8319727906382975  0.6669826588112086  0.06590505953333045          1.0000   
         C         C         1.0       0.8331784341802891  0.6846999659874741  0.0857916724014994 1.0000   
         C         C         1.0       0.8806596149442066  0.7559464908732643  0.08528306432018415          1.0000   
         C         C         1.0       0.9013043163681638  0.7797779596184399  0.07053276088942717          1.0000   
         C         C         1.0       0.9285567491088547  0.795282496926616   0.08066977774320758          1.0000   
         C         C         1.0       0.9344301782380221  0.7867316748710953  0.10536540813668893          1.0000   
         C         C         1.0       0.9135859939033761  0.7609637293057495  0.1180085913575491 1.0000   
         C         C         1.0       0.8848298135513716  0.7467421117764742  0.10931600298020307          1.0000   
         H         H         1.0       0.8216597554135429  0.7178828819001825  0.2958359881408777 1.0000   
         H         H         1.0       0.8143600116845796  0.7214417141357597  0.20797509530427646          1.0000   
         H         H         1.0       0.7903575425185316  0.7445501030718172  0.21549358642098457          1.0000   
         H         H         1.0       0.8042154088766187  0.7514618885315999  0.30037719538226676          1.0000   
         H         H         1.0       0.7898164413608002  0.6683574077425216  0.20738936728277532          1.0000   
         H         H         1.0       0.7426236979120708  0.629138192064237   0.21682987313593824          1.0000   
         H         H         1.0       0.7702558943609915  0.6185716098164443  0.29623544814101466          1.0000   
         H         H         1.0       0.815246001533126   0.66279867897337    0.29030209754104797          1.0000   
         H         H         1.0       0.875188052619572   0.7527095690647968  0.2191944292328703 1.0000   
         H         H         1.0       0.8808153841334899  0.7602184786720556  0.1687843369355583 1.0000   
         H         H         1.0       0.8467543615621191  0.6722414037351856  0.1560519741451328 1.0000   
         H         H         1.0       0.841139928996545   0.6646424063549687  0.20810321646223023          1.0000   
         H         H         1.0       0.8218206490076514  0.776958073764689   0.13390270009152527          1.0000   
         H         H         1.0       0.8594431747167518  0.7705840297525695  0.1292829232010802 1.0000   
         H         H         1.0       0.8018258590135268  0.6821103783651146  0.1373122695429427 1.0000   
         H         H         1.0       0.762185655477046   0.6881843160541837  0.14898448842440992          1.0000   
         H         H         1.0       0.8921186553600999  0.6952901431661193  0.11771203028929475          1.0000   
         H         H         1.0       0.8862557152767135  0.6603762248014804  0.08771027874532517          1.0000   
         H         H         1.0       0.8164940418105884  0.65977940643155    0.05087918735483076          1.0000   
         H         H         1.0       0.8201771023531608  0.6937864544784723  0.08382632096871515          1.0000   
         H         H         1.0       0.8595253880395316  0.7442580257658303  0.07805974339753617          1.0000   
         H         H         1.0       0.8987187832957594  0.788718641213106   0.0518131149674171 1.0000   
         H         H         1.0       0.9566149814930698  0.7984025933198873  0.11359240883412139          1.0000   
         H         H         1.0       0.9186459746199597  0.7544117333554412  0.1368296030752874 1.0000   
         C         C         1.0       0.809679205734942   0.5968972751481483  0.5209576617249252 1.0000   
         C         C         1.0       0.8015452121908432  0.5856821000877841  0.4944083756467734 1.0000   
         C         C         1.0       0.7951157428191851  0.5993047318296674  0.4744732292641192 1.0000   
         C         C         1.0       0.7903244185324324  0.6208619838638919  0.4812585793950265 1.0000   
         C         C         1.0       0.801929368828809   0.633261062782434   0.5070571622740871 1.0000   
         C         C         1.0       0.8107651277513495  0.622094912823225   0.5261425983981997 1.0000   
         H         H         1.0       0.8026462432674264  0.568388235069285   0.4877124902431342 1.0000   
         H         H         1.0       0.7924949328767522  0.5907825591485055  0.4545993716607836 1.0000   
         H         H         1.0       0.8017908978466364  0.6518470746204414  0.5144245117570894 1.0000   
         H         H         1.0       0.8180125371610859  0.6320941542650971  0.545865179240719  1.0000   
         C         C         1.0       0.740993877028905   0.6255531450887355  0.49749541984770457          1.0000   
         C         C         1.0       0.7572201894339838  0.640734687337768   0.4744954267889799 1.0000   
         C         C         1.0       0.7515072429711187  0.6604930134939793  0.46393327652703964          1.0000   
         C         C         1.0       0.7317146169249114  0.66572124248974    0.47599579021240107          1.0000   
         C         C         1.0       0.7165037498074192  0.6506956821330989  0.49947338823304355          1.0000   
         C         C         1.0       0.7203933338837073  0.6305108580037553  0.5102604601901404 1.0000   
         C         C         1.0       0.7776526055827394  0.6329709966076413  0.45899586779793067          1.0000   
         C         C         1.0       0.7546704871913225  0.6089713165767625  0.43773457316695036          1.0000   
         C         C         1.0       0.7525690179776416  0.6156095697884687  0.409854738076353  1.0000   
         C         C         1.0       0.7342232100208549  0.5963451032562953  0.39193736540489044          1.0000   
         C         C         1.0       0.7139806318442411  0.5687940664698141  0.4018515738970514 1.0000   
         C         C         1.0       0.7139978380318878  0.5628058700405557  0.42939520349841553          1.0000   
         C         C         1.0       0.7345741882916116  0.5822606271129246  0.446229776344248  1.0000   
         C         C         1.0       0.8203356823456107  0.6848556327181295  0.4634102309507939 1.0000   
         C         C         1.0       0.8485694547760243  0.7060336420382292  0.4559303667898961 1.0000   
         C         C         1.0       0.8616248085892403  0.7040326283057056  0.4323333776855767 1.0000   
         C         C         1.0       0.8440224004643663  0.6817694941255964  0.4147031319754168 1.0000   
         C         C         1.0       0.8189031178529856  0.659031222093057   0.4227858993757981 1.0000   
         C         C         1.0       0.8060523701505278  0.6604500065619454  0.4474083243569837 1.0000   
         C         C         1.0       0.8941229069171519  0.7300497816402156  0.4262808460169052 1.0000   
         C         C         1.0       0.8663343707827943  0.7886386347236413  0.41505619437335906          1.0000   
         C         C         1.0       0.8829313516818036  0.7919971455538034  0.4369813925760108 1.0000   
         C         C         1.0       0.8939949589386116  0.775179587120757   0.4406846135408968 1.0000   
         C         C         1.0       0.8875060046532279  0.7538874831701409  0.4222382197342814 1.0000   
         C         C         1.0       0.8723994944689685  0.7522206651264522  0.39714805263286296          1.0000   
         C         C         1.0       0.8608112893378517  0.7682514057400446  0.39474408838647657          1.0000   
         C         C         1.0       0.9096009556743921  0.7260474623732809  0.4000943485960688 1.0000   
         C         C         1.0       0.9072120956039159  0.7003505041791236  0.39433846884739837          1.0000   
         C         C         1.0       0.9204942154553101  0.6983673150873989  0.37094509565853595          1.0000   
         C         C         1.0       0.9349110897834662  0.7208174881540151  0.3527801235982566 1.0000   
         C         C         1.0       0.9393973508840439  0.7466685272437201  0.3603654629381489 1.0000   
         C         C         1.0       0.9261851022332914  0.7486746734331441  0.3835543488794285 1.0000   
         C         C         1.0       0.9417932868273021  0.7602134967555567  0.45518493810211247          1.0000   
         C         C         1.0       0.961910974960718   0.7612895287811273  0.47295379999705994          1.0000   
         C         C         1.0       0.9572882489760808  0.7377152637867066  0.48537534851891223          1.0000   
         C         C         1.0       0.9303860305544845  0.7131062619347318  0.4837129088566708 1.0000   
         C         C         1.0       0.9098282959136674  0.7106749959909366  0.46629227529359163          1.0000   
         C         C         1.0       0.9155054194602015  0.7343504847294224  0.4514702901496204 1.0000   
         H         H         1.0       0.7402220317203825  0.6067280253957226  0.5056876542921616 1.0000   
         H         H         1.0       0.7640816641135217  0.6731742714585928  0.44674846810224594          1.0000   
         H         H         1.0       0.7284157173695158  0.6822116447500876  0.4686526562717981 1.0000   
         H         H         1.0       0.7103773654689268  0.6202637135943551  0.5307932182986212 1.0000   
         H         H         1.0       0.7660058309109503  0.6379160778576936  0.402552665271622  1.0000   
         H         H         1.0       0.7348475576477957  0.6033819731175206  0.3717639194664319 1.0000   
         H         H         1.0       0.6998210270563269  0.5419759794637335  0.43742726911757396          1.0000   
         H         H         1.0       0.7335223560515577  0.5753059460914733  0.4676087524603719 1.0000   
         H         H         1.0       0.8131716813098046  0.6897691394549057  0.4823874026887744 1.0000   
         H         H         1.0       0.859549059421459   0.7241933865915403  0.46992053718586074          1.0000   
         H         H         1.0       0.8511755672601339  0.6819840538718149  0.3939063000273037 1.0000   
         H         H         1.0       0.8090269257676675  0.6401346389694749  0.4099756919656327 1.0000   
         H         H         1.0       0.8873227743489495  0.8079258102313827  0.4526041530064044 1.0000   
         H         H         1.0       0.9008278445622551  0.7734489649074949  0.4611895653655017 1.0000   
         H         H         1.0       0.8694389744665353  0.7376486867527531  0.3816591089920337 1.0000   
         H         H         1.0       0.8463253544806763  0.7645077151489185  0.37794592474774713          1.0000   
         H         H         1.0       0.8951007082225018  0.6822906427886231  0.4076742075235065 1.0000   
         H         H         1.0       0.9150508538042723  0.6772088116980243  0.3659295637120118 1.0000   
         H         H         1.0       0.9515610853239216  0.7650768151976263  0.34561133893014984          1.0000   
         H         H         1.0       0.9314522738956817  0.7704115668738645  0.3902854869002083 1.0000   
         H         H         1.0       0.9474864070258372  0.7779984984884201  0.4429506354817978 1.0000   
         H         H         1.0       0.98223152789116    0.7809472139052627  0.4748569682095917 1.0000   
         H         H         1.0       0.923751238068507   0.6951377192268181  0.4950909725365106 1.0000   
         H         H         1.0       0.8916059442977727  0.6892604044432175  0.4634796446321787 1.0000   
         C         C         1.0       0.5989687322888612  0.42453056677410517           0.13406272850221462          1.0000   
         C         C         1.0       0.621187543142736   0.4348260334407741  0.15324426866635923          1.0000   
         C         C         1.0       0.6259759207574421  0.45706120750628354           0.17052737982167349          1.0000   
         C         C         1.0       0.609363686801661   0.4695635691126504  0.16903371348438437          1.0000   
         C         C         1.0       0.5888257576518093  0.45990749714113416           0.1489543159797082 1.0000   
         C         C         1.0       0.5830206900858669  0.43696196846183294           0.13336993014253704          1.0000   
         H         H         1.0       0.6353663869886886  0.4270858811709343  0.15370854154993172          1.0000   
         H         H         1.0       0.6426345113007693  0.46191756597425804           0.18453871397973756          1.0000   
         H         H         1.0       0.5756053887719349  0.46847587955450803           0.14926988648893832          1.0000   
         H         H         1.0       0.56374487309969    0.4271054038593949  0.12072734586408089          1.0000   
         C         C         1.0       0.6025446448945159  0.522016167971274   0.16199042304697134          1.0000   
         C         C         1.0       0.6019975602472462  0.5121598884843621  0.1888124337629476 1.0000   
         C         C         1.0       0.591112003578827   0.5212030222479923  0.20923314651235028          1.0000   
         C         C         1.0       0.5787196232213776  0.5368936601351129  0.20410764126235748          1.0000   
         C         C         1.0       0.5759322724283438  0.5429101200409653  0.17765966786310133          1.0000   
         C         C         1.0       0.5901516935198488  0.5382533985779745  0.1564848060010403 1.0000   
         C         C         1.0       0.6108255055147739  0.48929610812203433           0.19464466760121657          1.0000   
         C         C         1.0       0.6414986485829457  0.5098364434382648  0.20760175511727247          1.0000   
         C         C         1.0       0.6434484620951881  0.5182724356283116  0.23557678320288178          1.0000   
         C         C         1.0       0.6698664411236213  0.5354936231761689  0.24734073780689145          1.0000   
         C         C         1.0       0.695390228610024   0.5452707211434827  0.2324345464309639 1.0000   
         C         C         1.0       0.6923562266641773  0.5389847221757863  0.20441390336078855          1.0000   
         C         C         1.0       0.6658082195895008  0.5217376235452458  0.19277662732520104          1.0000   
         C         C         1.0       0.5561130187431903  0.45195100202029065           0.20446319714065794          1.0000   
         C         C         1.0       0.5350074999556045  0.42496766156787036           0.21211829081249473          1.0000   
         C         C         1.0       0.5389570620334102  0.40940363371524835           0.23150912373897248          1.0000   
         C         C         1.0       0.5662791599104268  0.42382616284405994           0.24411132168209496          1.0000   
         C         C         1.0       0.5886281575093096  0.44873694408499676           0.23263846516938372          1.0000   
         C         C         1.0       0.5839114130964379  0.4643758782328079  0.21337987306309325          1.0000   
         C         C         1.0       0.5119240120649831  0.3788450289436799  0.23976531179397176          1.0000   
         C         C         1.0       0.47024884620826557           0.42101163838529376          0.2735973743774388 1.0000   
         C         C         1.0       0.4590884776366609  0.4047774266634865  0.25032658087384685          1.0000   
         C         C         1.0       0.4705527173763216  0.3900313447021616  0.2398570238251928 1.0000   
         C         C         1.0       0.4918498412091507  0.3886320758787909  0.25383567845860977          1.0000   
         C         C         1.0       0.49930578388908664           0.4013611692200585 0.2799766546325833 1.0000   
         C         C         1.0       0.48931487366167686           0.41805466561520205          0.28926090618812517          1.0000   
         C         C         1.0       0.5152108237675931  0.35874732889418076           0.260071539903144  1.0000   
         C         C         1.0       0.5380053825734565  0.35454753494986574           0.25961063823440883          1.0000   
         C         C         1.0       0.5408155568491815  0.33887529804095484           0.2792867824773359 1.0000   
         C         C         1.0       0.5200475040461634  0.32619398407483596           0.29999924738118705          1.0000   
         C         C         1.0       0.4951600328514814  0.32571847625451567           0.2985181973999057 1.0000   
         C         C         1.0       0.49383815842445306           0.3431530637839071 0.2794462507470899 1.0000   
         C         C         1.0       0.4711624674298465  0.3380079708565582  0.21086773936309494          1.0000   
         C         C         1.0       0.4614233648835761  0.3218886455247684  0.1876967265398842 1.0000   
         C         C         1.0       0.4797460282720984  0.3244992369185402  0.16644227983979965          1.0000   
         C         C         1.0       0.5089599611354721  0.34260150890261537           0.16981944011847705          1.0000   
         C         C         1.0       0.5188060826800862  0.3601321081067363  0.19231768305238828          1.0000   
         C         C         1.0       0.500211824884593   0.35827378046397185           0.21323231398041795          1.0000   
         H         H         1.0       0.6099336378625663  0.5153992982555559  0.1447760363678931 1.0000   
         H         H         1.0       0.5929111001140329  0.5191603265346103  0.2315088601955268 1.0000   
         H         H         1.0       0.5720851698571744  0.543282585967774   0.22256337494082445          1.0000   
         H         H         1.0       0.5888982708797812  0.5443653868421046  0.13452359566843322          1.0000   
         H         H         1.0       0.6254005075300774  0.5062855296080706  0.2495092326904058 1.0000   
         H         H         1.0       0.6682902387355326  0.541114188948641   0.26839627096664354          1.0000   
         H         H         1.0       0.7106916095071693  0.5500261929051063  0.19202996456604818          1.0000   
         H         H         1.0       0.6657352004781805  0.5182841639720833  0.1694128898735669 1.0000   
         H         H         1.0       0.5495127648361747  0.46275755693081183           0.19075055874319655          1.0000   
         H         H         1.0       0.5127032312076133  0.4170272673828522  0.20651726897592237          1.0000   
         H         H         1.0       0.5706431383782864  0.415463893285445   0.26147173172413457          1.0000   
         H         H         1.0       0.6098643346048137  0.45794257985657455           0.23910828808182794          1.0000   
         H         H         1.0       0.44263392469100354           0.4035872114571168 0.23742287857719874          1.0000   
         H         H         1.0       0.46184062096821205           0.38049399179981597          0.22024514235794496          1.0000   
         H         H         1.0       0.5180855225872867  0.4043309636365795  0.2913163764173853 1.0000   
         H         H         1.0       0.49709789826123013           0.4305396505037743 0.30754033018627974          1.0000   
         H         H         1.0       0.5553606224111585  0.36443540623607906           0.24481376289790918          1.0000   
         H         H         1.0       0.5600323794773195  0.3382233211602617  0.27709280382568835          1.0000   
         H         H         1.0       0.47921459984361253           0.3153108889851994 0.314620110177649  1.0000   
         H         H         1.0       0.4755784868222556  0.3449811699312363  0.2811388853800891 1.0000   
         H         H         1.0       0.4559722027375915  0.3367938971029861  0.22786453035310103          1.0000   
         H         H         1.0       0.4375611743189707  0.30760160822202126           0.18434315849483354          1.0000   
         H         H         1.0       0.5235246456759652  0.3450888648217518  0.15351063838445977          1.0000   
         H         H         1.0       0.5406541017555093  0.37597134788084025           0.19185283065610512          1.0000   
         C         C         1.0       0.5313858384410771  0.3415415559507165  0.3645169197985869 1.0000   
         C         C         1.0       0.5584043312004227  0.35431760867251477           0.3761052696948687 1.0000   
         C         C         1.0       0.5714913738278686  0.3823595647138733  0.3860068386759774 1.0000   
         C         C         1.0       0.5592757024533417  0.39870345996316847           0.3825046785582444 1.0000   
         C         C         1.0       0.5322858655968856  0.3845311405787423  0.3704326073213    1.0000   
         C         C         1.0       0.5173182737394192  0.35640486214705075           0.3636771237968292 1.0000   
         H         H         1.0       0.5676131897406401  0.3411213611890354  0.37869359789339524          1.0000   
         H         H         1.0       0.5899425537773163  0.3908586404589444  0.39733985548671596          1.0000   
         H         H         1.0       0.5187121314373367  0.39266674661948214           0.367390559672375  1.0000   
         H         H         1.0       0.4958294552064244  0.347604408418013   0.35619112775859896          1.0000   
         C         C         1.0       0.5573874894351051  0.4528589349921589  0.3614737540318364 1.0000   
         C         C         1.0       0.5647461451086034  0.45211111392389103           0.38833394521155057          1.0000   
         C         C         1.0       0.5662874848394724  0.4725508852630443  0.40666105390831386          1.0000   
         C         C         1.0       0.5600763870134723  0.4922257011469367  0.39731240018575736          1.0000   
         C         C         1.0       0.5527618304244326  0.49266738488970147           0.3711701403622942 1.0000   
         C         C         1.0       0.5522743085342937  0.473134373019575   0.3526926671643282 1.0000   
         C         C         1.0       0.5724521595111952  0.4288951967444337  0.39828417758642376          1.0000   
         C         C         1.0       0.6063185567107531  0.4498144908842765  0.39573562480248087          1.0000   
         C         C         1.0       0.6230514997237792  0.4666560305543754  0.41733172607832464          1.0000   
         C         C         1.0       0.6508653782318374  0.4892487595413932  0.4123208435575174 1.0000   
         C         C         1.0       0.6653532791406872  0.49139668591566493           0.3881582965480535 1.0000   
         C         C         1.0       0.6487968600852262  0.4742014948178718  0.3667647169930685 1.0000   
         C         C         1.0       0.6216350077236931  0.45316233258599786           0.37122014876962256          1.0000   
         C         C         1.0       0.5305583092639851  0.4098381468756298  0.43041558439310135          1.0000   
         C         C         1.0       0.5146843441500415  0.39537869412750337           0.4531836828293599 1.0000   
         C         C         1.0       0.5253537556017623  0.38811473890348147           0.4750620803311063 1.0000   
         C         C         1.0       0.5537272893943649  0.3955600986664623  0.4720399799034903 1.0000   
         C         C         1.0       0.570939750333675   0.41091623950360284           0.4497722676304897 1.0000   
         C         C         1.0       0.5584951204822667  0.4167196792328501  0.4280697410289427 1.0000   
         C         C         1.0       0.5036725987877697  0.3688204516869863  0.498313623843985  1.0000   
         C         C         1.0       0.4567379042801137  0.40956653265445747           0.521032874994105  1.0000   
         C         C         1.0       0.4414472663377476  0.38183810508597105           0.5146632496382337 1.0000   
         C         C         1.0       0.45625446774603967           0.3694391275874058 0.5088484776281506 1.0000   
         C         C         1.0       0.4859996860253534  0.38342471871559725           0.5084676721373679 1.0000   
         C         C         1.0       0.5003942744355891  0.412040568349137   0.5134365816875935 1.0000   
         C         C         1.0       0.48626029943359855           0.42472166780157905          0.5221963981713446 1.0000   
         C         C         1.0       0.5370889537794409  0.39819602467442167           0.028772349724935035         1.0000   
         C         C         1.0       0.5320044432146933  0.3726819865651017  0.036184471604487234         1.0000   
         C         C         1.0       0.5471847105832355  0.3695928135441712  0.05632866691056875          1.0000   
         C         C         1.0       0.5696818419796782  0.39338591161789427           0.06778008813850693          1.0000   
         C         C         1.0       0.5732335664994469  0.41910531010784935           0.06362945554123474          1.0000   
         C         C         1.0       0.5568565353835995  0.4215183787224802  0.04398303689403184          1.0000   
         C         C         1.0       0.4708088465884801  0.3653587794447016  0.9809437592523959 1.0000   
         C         C         1.0       0.4571366972464211  0.3461224974756044  0.9602404120069198 1.0000   
         C         C         1.0       0.47137006203222565           0.3364534107543411 0.9442843856623085 1.0000   
         C         C         1.0       0.45779467680499586           0.3017843751969562 0.4527799916590038 1.0000   
         C         C         1.0       0.4787459453869974  0.3280025138763783  0.461040023386444  1.0000   
         C         C         1.0       0.4812355127383635  0.3364196128845718  0.4885865169273736 1.0000   
         H         H         1.0       0.5562846369562793  0.4379107815870862  0.3466692682732931 1.0000   
         H         H         1.0       0.5758784092134671  0.47619612462414074           0.4273920638563595 1.0000   
         H         H         1.0       0.5552967008758581  0.5039438043972734  0.41284725086040736          1.0000   
         H         H         1.0       0.5456952577436897  0.4729672254136457  0.33311022524117984          1.0000   
         H         H         1.0       0.6140041331084122  0.4664444635770858  0.43639808796998736          1.0000   
         H         H         1.0       0.6615712060140484  0.5036235910233211  0.4281990028804035 1.0000   
         H         H         1.0       0.6581484254170707  0.4756803905829163  0.3462246963329595 1.0000   
         H         H         1.0       0.6117612692012161  0.4423896191790973  0.3533872194010569 1.0000   
         H         H         1.0       0.5185013952223857  0.4128932249603952  0.41415270263282916          1.0000   
         H         H         1.0       0.4918356658174822  0.38810424155423606           0.4533521768531833 1.0000   
         H         H         1.0       0.5647121926087222  0.3908650947592545  0.4872641429317067 1.0000   
         H         H         1.0       0.5914843106405128  0.4126682470488081  0.4486552352523343 1.0000   
         H         H         1.0       0.4175079476152286  0.36900879762899114           0.5125738021940565 1.0000   
         H         H         1.0       0.44058660250714177           0.3480782419311694 0.5023109092705893 1.0000   
         H         H         1.0       0.5228108514232018  0.4244264169553292  0.514779252423421  1.0000   
         H         H         1.0       0.4972318343929993  0.44718962454248723           0.5278694424905351 1.0000   
         H         H         1.0       0.5302243218737778  0.3416066415146714  0.5002883181494554 1.0000   
         H         H         1.0       0.5415951624110007  0.3481350769878071  0.06248358505781714          1.0000   
         H         H         1.0       0.590976951898537   0.43780916044588336           0.07289724003449059          1.0000   
         H         H         1.0       0.5622692048343256  0.44359140505280836           0.04081362386408257          1.0000   
         H         H         1.0       0.4585890805976282  0.3732071908296829  0.9897763071867255 1.0000   
         H         H         1.0       0.43521142622644243           0.33942360921206993          0.9560536038727471 1.0000   
         H         H         1.0       0.45848290261082386           0.29845399197203193          0.4309039290718826 1.0000   
         H         H         1.0       0.49368495796021034           0.34169615408220366          0.44444077558876044          1.0000   
         C         C         1.0       0.433530489146012   0.5912655115365405  0.42438695930443654          1.0000   
         C         C         1.0       0.44499754950484793           0.6117238719046204 0.4037679076616272 1.0000   
         C         C         1.0       0.46712373021551334           0.6153679929282777 0.38528253667675494          1.0000   
         C         C         1.0       0.4794926748535458  0.5987726307973842  0.3888981438934598 1.0000   
         C         C         1.0       0.46878918817226656           0.5800782311908003 0.41107470198913376          1.0000   
         C         C         1.0       0.44757797507617336           0.576737378676952  0.42825337305909106          1.0000   
         H         H         1.0       0.43796542331343774           0.626104159249299  0.4007707506264554 1.0000   
         H         H         1.0       0.4745335559396043  0.6307594200203188  0.3688593662650194 1.0000   
         H         H         1.0       0.4749241045163398  0.5649052465867148  0.41216581124597096          1.0000   
         H         H         1.0       0.4402248547876283  0.5605810163548053  0.4444971372762961 1.0000   
         C         C         1.0       0.5286130730818535  0.5838624431972772  0.38995329957993374          1.0000   
         C         C         1.0       0.5160770506419232  0.5839133807942192  0.36514260211524413          1.0000   
         C         C         1.0       0.5209880317568776  0.5711283259316041  0.3428326257962325 1.0000   
         C         C         1.0       0.5376927008436241  0.5601304681614915  0.34432016245204533          1.0000   
         C         C         1.0       0.5498122656830687  0.5600320750427006  0.3688044496766863 1.0000   
         C         C         1.0       0.544422592786176   0.5706428782559971  0.3919637049216081 1.0000   
         C         C         1.0       0.49553254688625836           0.5956762533061025 0.36282205747304963          1.0000   
         C         C         1.0       0.5172391489981751  0.6253864375172183  0.3490056800160383 1.0000   
         C         C         1.0       0.5245951374138413  0.6282516346886435  0.3211530011595617 1.0000   
         C         C         1.0       0.5474766801325848  0.6537114058648837  0.30901536827477044          1.0000   
         C         C         1.0       0.5623799933520816  0.6766904218324715  0.325736881275346  1.0000   
         C         C         1.0       0.557274390841089   0.6740823639802794  0.3542033312790989 1.0000   
         C         C         1.0       0.5338072505682897  0.64978443241452    0.36506961153362133          1.0000   
         C         C         1.0       0.45254481520327916           0.5445935387706384 0.35341111793130525          1.0000   
         C         C         1.0       0.42699512723015437           0.5255813124224297 0.3409871812355297 1.0000   
         C         C         1.0       0.4172255286707144  0.5328795785310647  0.31928356639130345          1.0000   
         C         C         1.0       0.43320074623647076           0.5602916406930537 0.3099745760205378 1.0000   
         C         C         1.0       0.45607496945814296           0.5805393109654187 0.3238117334166756 1.0000   
         C         C         1.0       0.46838823301636795           0.5744180590033473 0.34599669869240196          1.0000   
         C         C         1.0       0.38927892078777054           0.5079074458917885 0.30486979764090955          1.0000   
         C         C         1.0       0.4291610392622834  0.46200950975304883           0.2745036603018073 1.0000   
         C         C         1.0       0.4122386286979255  0.45202372646411043           0.29715248132285943          1.0000   
         C         C         1.0       0.3984392374536258  0.4656935377200352  0.30601227954218985          1.0000   
         C         C         1.0       0.4010570999075888  0.489104516686596   0.292950612641337  1.0000   
         C         C         1.0       0.4198648734020894  0.49915267249123796           0.27056804089331177          1.0000   
         C         C         1.0       0.43423708948195067           0.48666005967384074          0.261238737151709  1.0000   
         C         C         1.0       0.37227435678532467           0.5159019110860322 0.2825629664828844 1.0000   
         C         C         1.0       0.3648423644799165  0.536088595868039   0.28963669047656815          1.0000   
         C         C         1.0       0.35641190001132156           0.5480783005510179 0.26962475903487254          1.0000   
         C         C         1.0       0.3506286461717823  0.5368055257248561  0.2440628976622222 1.0000   
         C         C         1.0       0.35183485219848226           0.513055545161202  0.2380212307824578 1.0000   
         C         C         1.0       0.3614841013863191  0.5023391718493485  0.2574043996016274 1.0000   
         C         C         1.0       0.3408705446094547  0.46442647946473864           0.3236983173540964 1.0000   
         C         C         1.0       0.31540872608708664           0.45255779973259597          0.33838951222474695          1.0000   
         C         C         1.0       0.31354683162079    0.46870566143534487           0.35891672533596114          1.0000   
         C         C         1.0       0.3370729577396476  0.4956180348250725  0.36470245662240625          1.0000   
         C         C         1.0       0.3617625774923774  0.5072615042813398  0.34828391881345844          1.0000   
         C         C         1.0       0.3638598222186127  0.4923558494899402  0.3269164058436039 1.0000   
         H         H         1.0       0.5276698316494404  0.5945889430310553  0.4089592378296762 1.0000   
         H         H         1.0       0.5116126368925886  0.5714969249931227  0.32334033740344964          1.0000   
         H         H         1.0       0.5435819262483986  0.5540553984039942  0.3247129338371016 1.0000   
         H         H         1.0       0.5543198555015304  0.5696699550890271  0.41060159328827933          1.0000   
         H         H         1.0       0.511920540994642   0.61095662646207    0.30672542760072397          1.0000   
         H         H         1.0       0.5513849584794409  0.6548585086399085  0.28684285136149446          1.0000   
         H         H         1.0       0.5712045363536556  0.6931640001567994  0.36484165573592375          1.0000   
         H         H         1.0       0.5331933296269055  0.6483286219660553  0.3879275816078377 1.0000   
         H         H         1.0       0.4569308101769992  0.5359158586268487  0.37263610277556136          1.0000   
         H         H         1.0       0.4144699067330201  0.5058114613141466  0.3511022939684952 1.0000   
         H         H         1.0       0.4263277004573854  0.5678445768726142  0.29229917022124774          1.0000   
         H         H         1.0       0.4660246625514675  0.6010037178949493  0.3145881147506794 1.0000   
         H         H         1.0       0.4056564707570359  0.4313915540607264  0.3074957239834836 1.0000   
         H         H         1.0       0.3866326611972536  0.45886360038472246           0.3251170519502636 1.0000   
         H         H         1.0       0.4208399620537606  0.5150997938832995  0.2588609087405191 1.0000   
         H         H         1.0       0.44842039526869726           0.4945515964577849 0.242502865680733  1.0000   
         H         H         1.0       0.37419629763121853           0.5486592931517505 0.30723463879475704          1.0000   
         H         H         1.0       0.35762345152527336           0.5678272744571662 0.27187563911568974          1.0000   
         H         H         1.0       0.3478619017347322  0.5048954019718888  0.216590663423601  1.0000   
         H         H         1.0       0.36277391510106455           0.4835351153104978 0.25347505888975447          1.0000   
         H         H         1.0       0.3417686537642075  0.45330697395689235           0.30613583775877073          1.0000   
         H         H         1.0       0.30066249532732153           0.42984862783968697          0.3346392685553922 1.0000   
         H         H         1.0       0.3375061558704734  0.5088847512871072  0.3822597508189649 1.0000   
         H         H         1.0       0.37613044811062113           0.5294001569102484 0.3516184347688575 1.0000   
         C         C         1.0       0.3926083570794181  0.5791970827611881  0.19470351817624187          1.0000   
         C         C         1.0       0.40074222474929694           0.5936357841384883 0.170466017237222  1.0000   
         C         C         1.0       0.4202191284960069  0.5924372715009795  0.1527852531832131 1.0000   
         C         C         1.0       0.43272456821489536           0.5771201708724889 0.16071770263561005          1.0000   
         C         C         1.0       0.42404428880741546           0.5622003881749884 0.18544786806652283          1.0000   
         C         C         1.0       0.4061297022995826  0.5650354360154891  0.20259431986520457          1.0000   
         H         H         1.0       0.3926665893451512  0.6065373512798511  0.16516359239329742          1.0000   
         H         H         1.0       0.4241588720334748  0.6008878191648038  0.13215106106142663          1.0000   
         H         H         1.0       0.43142173459329447           0.5473466408127123 0.19115690013102152          1.0000   
         H         H         1.0       0.4027593904890692  0.556582202486784   0.22375432734489167          1.0000   
         C         C         1.0       0.48396814865047466           0.5677800954866523 0.1748472787269529 1.0000   
         C         C         1.0       0.46905665172163225           0.5582479725098697 0.14979308056595803          1.0000   
         C         C         1.0       0.47449861691908357           0.5407860983489885 0.13282401340694505          1.0000   
         C         C         1.0       0.4923580916175256  0.5325618334006768  0.14121728431323294          1.0000   
         C         C         1.0       0.505995011890254   0.5426210625996308  0.16639083749711456          1.0000   
         C         C         1.0       0.5024707661506763  0.5599732322563155  0.18277373873992853          1.0000   
         C         C         1.0       0.45016417002891684           0.571281627406313  0.13861183109679825          1.0000   
         C         C         1.0       0.47707130495845934           0.5989049533222051 0.12592367474311594          1.0000   
         C         C         1.0       0.488391717049873   0.5987128754076132  0.10006135460189407          1.0000   
         C         C         1.0       0.513528810921334   0.622144341048808   0.09033316079248511          1.0000   
         C         C         1.0       0.5264812129439199  0.6467824065756802  0.10464400007829588          1.0000   
         C         C         1.0       0.5154177030855119  0.6469301507134304  0.13105523342224015          1.0000   
         C         C         1.0       0.49123962267062765           0.6238650575088404 0.14061413169588804          1.0000   
         C         C         1.0       0.4069745227406754  0.5219812505217253  0.12813325481286703          1.0000   
         C         C         1.0       0.3836187072773388  0.5028658316564217  0.11372711579100989          1.0000   
         C         C         1.0       0.37859858828870796           0.5072036641129732 0.08637180192638096          1.0000   
         C         C         1.0       0.3998091899784193  0.5323175204279224  0.0752468061497589 1.0000   
         C         C         1.0       0.4214728047578766  0.5544057360867666  0.09137441512357893          1.0000   
         C         C         1.0       0.42627421911606117           0.549122961530046  0.11839236709048803          1.0000   
         C         C         1.0       0.3395867299587932  0.4539778859401751  0.4840564872355653 1.0000   
         C         C         1.0       0.4108354860570825  0.4390883232627239  0.490702314195389  1.0000   
         C         C         1.0       0.38414739034142265           0.4173243357561929 0.4869520760371214 1.0000   
         C         C         1.0       0.3607078355627098  0.4211900945553405  0.48556504267383593          1.0000   
         C         C         1.0       0.36611969787052245           0.4482236650053752 0.485781927512642  1.0000   
         C         C         1.0       0.3931923644191593  0.47011353433539654           0.4918263607318355 1.0000   
         C         C         1.0       0.41590308457928515           0.46677934539346055          0.49353559920129325          1.0000   
         C         C         1.0       0.34662416506448124           0.479531207608356  0.464417618859191  1.0000   
         C         C         1.0       0.3314383222606117  0.4925469096496806  0.46653991870224626          1.0000   
         C         C         1.0       0.3413902893276562  0.5181510171534733  0.45448186590173745          1.0000   
         C         C         1.0       0.3658743950712726  0.5307185541995435  0.4385507072246357 1.0000   
         C         C         1.0       0.37796021354611553           0.5154678099919406 0.4318043075350734 1.0000   
         C         C         1.0       0.3677911180659614  0.4895330933381184  0.44330907611447656          1.0000   
         C         C         1.0       0.3110370121330905  0.41881078007491956           0.44466737832995923          1.0000   
         C         C         1.0       0.28614850515398016           0.39755185113672353          0.4322830566849696 1.0000   
         C         C         1.0       0.2595624820151897  0.3881370946169654  0.44514386024580443          1.0000   
         C         C         1.0       0.25927975842987194           0.40157899644987827          0.4687087161891429 1.0000   
         C         C         1.0       0.283742024071629   0.42269249336516745           0.48010833857330804          1.0000   
         C         C         1.0       0.3107569270507785  0.4298942929238251  0.4702432831135518 1.0000   
         H         H         1.0       0.48085708778344455           0.5799386091315673 0.18977791048144654          1.0000   
         H         H         1.0       0.4654927102773326  0.5338557377285552  0.1120163906064422 1.0000   
         H         H         1.0       0.49565084434468765           0.5183215484597655 0.12724980737307237          1.0000   
         H         H         1.0       0.5131317787650467  0.5665235837752067  0.2027210665038463 1.0000   
         H         H         1.0       0.48069819960977506           0.5814504017465453 0.08815728639062362          1.0000   
         H         H         1.0       0.5213325764572065  0.6198280223742476  0.07047844912877953          1.0000   
         H         H         1.0       0.5264829987039218  0.6661072627344148  0.14233307787178537          1.0000   
         H         H         1.0       0.48434743097501526           0.6257148219475817 0.16089933877759713          1.0000   
         H         H         1.0       0.4091944219692878  0.5154987596523558  0.14830625508162634          1.0000   
         H         H         1.0       0.36768419757003695           0.48231953056226423          0.12285843159768224          1.0000   
         H         H         1.0       0.4013849027749547  0.5352197336487248  0.05335136294355989          1.0000   
         H         H         1.0       0.4350804618172633  0.5742616936529468  0.08084151865108559          1.0000   
         H         H         1.0       0.38062290223148154           0.39660400516265554          0.48763797446146706          1.0000   
         H         H         1.0       0.3393535575650487  0.4042413318159192  0.48061682749972706          1.0000   
         H         H         1.0       0.3999791369298274  0.49193484983858893           0.4963735520707873 1.0000   
         H         H         1.0       0.4373413726093315  0.48492945304969715           0.49754551516529744          1.0000   
         H         H         1.0       0.31549517675287797           0.48620065237965204          0.4830392138470734 1.0000   
         H         H         1.0       0.331114429179125   0.5297937506761159  0.4605352976823546 1.0000   
         H         H         1.0       0.3931684981883146  0.5206091662763084  0.41375272227430787          1.0000   
         H         H         1.0       0.37735573293829905           0.4768716174513188 0.4368323124092949 1.0000   
         H         H         1.0       0.33144400107705485           0.42601130648863483          0.43551310854647185          1.0000   
         H         H         1.0       0.2883156071581648  0.3880685251354104  0.4135460897838997 1.0000   
         H         H         1.0       0.2915890096396201  0.4908360393367342  0.12642352808309565          1.0000   
         H         H         1.0       0.33639561907129284           0.5061153614151651 0.10474526362495258          1.0000   
         C         C         1.0       0.7301337107949342  0.9006817902406231  0.2444543741457707 1.0000   
         C         C         1.0       0.7043083990314399  0.8768621230728985  0.2369958803506204 1.0000   
         C         C         1.0       0.6951005737550914  0.8511868229262259  0.24891718068679058          1.0000   
         C         C         1.0       0.7111817139938985  0.8492371562800247  0.26935807306834186          1.0000   
         C         C         1.0       0.7365399826575081  0.8738858215127705  0.2770289503624662 1.0000   
         C         C         1.0       0.7458313885256591  0.8984815004315588  0.2649031870794368 1.0000   
         H         H         1.0       0.6925777082581257  0.8773037734821857  0.2191815922543909 1.0000   
         H         H         1.0       0.6760247154108255  0.8316473551951467  0.24281501075588546          1.0000   
         H         H         1.0       0.7486932325126017  0.871273265885511   0.2914672850407657 1.0000   
         H         H         1.0       0.7650061682135542  0.9178231620071275  0.27340020207683374          1.0000   
         C         C         1.0       0.7438824833555112  0.8202783597158612  0.2570134845434254 1.0000   
         C         C         1.0       0.7172538175911018  0.8043027566860725  0.2698575200216596 1.0000   
         C         C         1.0       0.7054943817427624  0.7757398097923034  0.2703222213341585 1.0000   
         C         C         1.0       0.7195308580000253  0.7634898927687581  0.2583082163704804 1.0000   
         C         C         1.0       0.7460516907737439  0.7796464786961752  0.24616464360848925          1.0000   
         C         C         1.0       0.7572289796163975  0.8080711193430375  0.24393728377989055          1.0000   
         C         C         1.0       0.7036995789886225  0.8197624464306775  0.28538212704586835          1.0000   
         C         C         1.0       0.6680148200972862  0.7985146859536941  0.2851258377254909 1.0000   
         C         C         1.0       0.6530654129159261  0.7979494155853503  0.30736944408354655          1.0000   
         C         C         1.0       0.6242398241756638  0.7748650170652831  0.310405186210803  1.0000   
         C         C         1.0       0.611444485539954   0.7526640867112627  0.29185633026274144          1.0000   
         C         C         1.0       0.6248539100134689  0.7574464312022191  0.2664323816801373 1.0000   
         C         C         1.0       0.6527690177713124  0.7811168817755919  0.26266610180969596          1.0000   
         C         C         1.0       0.7135508200535504  0.8024922689053654  0.3314613661114698 1.0000   
         C         C         1.0       0.7230920579651893  0.806220924621453   0.35855741323936646          1.0000   
         C         C         1.0       0.7362666562803337  0.833479074367495   0.369654140892686  1.0000   
         C         C         1.0       0.7284290736642964  0.8509649189439549  0.35795422301539265          1.0000   
         C         C         1.0       0.7163260905269374  0.8454850735026037  0.33273845465184937          1.0000   
         C         C         1.0       0.7133251798787977  0.8236839810983352  0.317374468130678  1.0000   
         C         C         1.0       0.7561134416432341  0.8424756456893457  0.3964238244153668 1.0000   
         C         C         1.0       0.804453859580742   0.8013590816213786  0.4145692481117829 1.0000   
         C         C         1.0       0.7956406974918928  0.8008914752754293  0.3889287849405668 1.0000   
         C         C         1.0       0.7819810444471469  0.8154483239997233  0.38164434067480274          1.0000   
         C         C         1.0       0.7720180554471469  0.8264777495862955  0.4021650367049015 1.0000   
         C         C         1.0       0.7801994684760121  0.8254095343051774  0.4297247788900463 1.0000   
         C         C         1.0       0.796519305663441   0.8143800392632871  0.4356696783488267 1.0000   
         C         C         1.0       0.7299882058461573  0.8342790487401052  0.41802918080546053          1.0000   
         C         C         1.0       0.7212391364114292  0.8534595536821801  0.42349956893612756          1.0000   
         C         C         1.0       0.695407144792514   0.8459734630618964  0.4352539578721836 1.0000   
         C         C         1.0       0.6771372956824343  0.8179406146839634  0.4418388936377349 1.0000   
         C         C         1.0       0.6857925936806816  0.7991263709785807  0.4394246219201322 1.0000   
         C         C         1.0       0.7130326933450315  0.807565165511024   0.4282064610340449 1.0000   
         C         C         1.0       0.7891984174172894  0.8958430802806768  0.40938153407307143          1.0000   
         C         C         1.0       0.8099846603279018  0.9229052467569158  0.4015926216174141 1.0000   
         C         C         1.0       0.8228418560174617  0.9274135223463906  0.37468084658094614          1.0000   
         C         C         1.0       0.8184041783892142  0.9046040686467148  0.35957443324656974          1.0000   
         C         C         1.0       0.7974126747770717  0.8782003500161042  0.36720872129799115          1.0000   
         C         C         1.0       0.7819624253652138  0.8734668396578205  0.39134086139365737          1.0000   
         H         H         1.0       0.7564510881117894  0.8436668678321662  0.2570510716950467 1.0000   
         H         H         1.0       0.6842052990092418  0.7606204220589527  0.28066419047139013          1.0000   
         H         H         1.0       0.7067698883616514  0.7404094511678009  0.2602813731808642 1.0000   
         H         H         1.0       0.7775300052960639  0.8215123346830319  0.23461390398430432          1.0000   
         H         H         1.0       0.6633588293377533  0.8134500094360808  0.3237603418052082 1.0000   
         H         H         1.0       0.61120331778974    0.7715840272176171  0.32861955777425994          1.0000   
         H         H         1.0       0.6148989416989766  0.7431441928308261  0.2486075286458812 1.0000   
         H         H         1.0       0.663831064892081   0.7809217596679346  0.24378306925795726          1.0000   
         H         H         1.0       0.7056719959306326  0.7808821051959676  0.32332952511914764          1.0000   
         H         H         1.0       0.7268763644061464  0.7915655362393886  0.3680420934838143 1.0000   
         H         H         1.0       0.737233654380103   0.872384867467312   0.3643738005594019 1.0000   
         H         H         1.0       0.7106999766525238  0.8601206600233052  0.3265225722907724 1.0000   
         H         H         1.0       0.8011150492874848  0.7909521422215373  0.37311901191474195          1.0000   
         H         H         1.0       0.77997066395769    0.8183131661130317  0.3593574449669571 1.0000   
         H         H         1.0       0.7758021017571898  0.835264020444749   0.44738298210957955          1.0000   
         H         H         1.0       0.7994175208067756  0.8126026387024892  0.4563489518845058 1.0000   
         H         H         1.0       0.7333141883052665  0.8758567693539766  0.4189964403330644 1.0000   
         H         H         1.0       0.6905712395035554  0.8621716199676754  0.43803487338178965          1.0000   
         H         H         1.0       0.6722786849419636  0.7786121879396339  0.44901416743375977          1.0000   
         H         H         1.0       0.7180724717052938  0.7914613239940179  0.42580759042275546          1.0000   
         H         H         1.0       0.7789334779977186  0.892342275605772   0.4297755823812167 1.0000   
         H         H         1.0       0.8166966785613503  0.9422784088834913  0.4128772888975259 1.0000   
         H         H         1.0       0.8290018015578136  0.9070042540475494  0.33981977264791835          1.0000   
         H         H         1.0       0.7903691419404416  0.8608842547382439  0.3519557671138075 1.0000   
         C         C         1.0       0.6353797061686983  0.7767539551694221  0.4985886176809437 1.0000   
         C         C         1.0       0.6077829686061939  0.7602016714689893  0.5075222440417283 1.0000   
         C         C         1.0       0.6709801033281444  0.8231592583877433  0.04218968031448938          1.0000   
         C         C         1.0       0.6812341029187561  0.806444662677235   0.0366155998636506 1.0000   
         C         C         1.0       0.6451169047982898  0.7420702808058389  0.5108263775163192 1.0000   
         C         C         1.0       0.6544780487486223  0.7678599291842971  0.5007924270614541 1.0000   
         H         H         1.0       0.5927146499082488  0.7665450757075416  0.5026005988223148 1.0000   
         H         H         1.0       0.6563440979555158  0.8192966141898459  0.05974498327105348          1.0000   
         H         H         1.0       0.6605345341486467  0.7365730237977224  0.5130462870909513 1.0000   
         H         H         1.0       0.6767343320593824  0.7812450182417422  0.4939202564091219 1.0000   
         C         C         1.0       0.6259279488283666  0.6778556786379311  0.5066830901576678 1.0000   
         C         C         1.0       0.6851905894757816  0.7610130916630267  0.055795666854164976         1.0000   
         C         C         1.0       0.6909742584959047  0.750824207347884   0.07908961804169284          1.0000   
         C         C         1.0       0.7035086775478716  0.73472704539884    0.0769630884238749 1.0000   
         C         C         1.0       0.6485341938626523  0.6523929579488902  0.5187533908047455 1.0000   
         C         C         1.0       0.6385265280713429  0.6625021060881268  0.4998503554647549 1.0000   
         C         C         1.0       0.678043870397501   0.7853614904234508  0.061439276830233425         1.0000   
         C         C         1.0       0.6441673319391454  0.7642491198027046  0.0691594641057988 1.0000   
         C         C         1.0       0.6366426207888276  0.7552813200294872  0.09631419784668178          1.0000   
         C         C         1.0       0.6083510412571569  0.735500462319564   0.10324888317722651          1.0000   
         C         C         1.0       0.5883886490879103  0.7227897745326571  0.08341162361578545          1.0000   
         C         C         1.0       0.5954131567494709  0.7315837146220072  0.056195053924704086         1.0000   
         C         C         1.0       0.6237566927892174  0.7524225678235978  0.05015187286296114          1.0000   
         C         C         1.0       0.7300474632847331  0.8215220168697733  0.07265499131026742          1.0000   
         C         C         1.0       0.7528552842885198  0.8415135821558967  0.08804145859173017          1.0000   
         C         C         1.0       0.7473976218158707  0.849008036322565   0.11319032690525227          1.0000   
         C         C         1.0       0.7192753633428735  0.839136981840609   0.12151577058842919          1.0000   
         C         C         1.0       0.6972183541574608  0.8216340057104622  0.10501105341076511          1.0000   
         C         C         1.0       0.7015514147130995  0.8096457372337004  0.08150666859096538          1.0000   
         C         C         1.0       0.7754723192716838  0.8670581184766123  0.13251120744090378          1.0000   
         C         C         1.0       0.7670889355469961  0.7866637396014867  0.152439407320289  1.0000   
         C         C         1.0       0.7875722229852398  0.8048484714793985  0.13252327701701055          1.0000   
         C         C         1.0       0.7922798633317901  0.8313895050760884  0.12664059636583097          1.0000   
         C         C         1.0       0.7781819325271963  0.8419634163634836  0.1419815548408231 1.0000   
         C         C         1.0       0.7597383644602996  0.824087087691964   0.16295759783029284          1.0000   
         C         C         1.0       0.7562164312351008  0.7989397241539362  0.16930730667441768          1.0000   
         C         C         1.0       0.7714635322524803  0.883764066008975   0.15694484139755885          1.0000   
         C         C         1.0       0.7574788684890267  0.8986621320536524  0.1525373263322864 1.0000   
         C         C         1.0       0.7609761501521042  0.9200134002707381  0.1697359974625423 1.0000   
         C         C         1.0       0.7741620121769498  0.9231888550948334  0.19477101417749065          1.0000   
         C         C         1.0       0.7864223588081337  0.9082272820387922  0.19930301991688035          1.0000   
         C         C         1.0       0.7869531406730649  0.8903838433276366  0.1806489283990399 1.0000   
         C         C         1.0       0.8318736187784194  0.9056618069966349  0.125138005961118  1.0000   
         C         C         1.0       0.8538057422982656  0.9301470773637343  0.11302469231207836          1.0000   
         C         C         1.0       0.8482722494479057  0.9427359858405834  0.09173528367983116          1.0000   
         C         C         1.0       0.8197542581800806  0.9309937901492485  0.08390142230624925          1.0000   
         C         C         1.0       0.7980511980825441  0.9074527858885121  0.09628551231964065          1.0000   
         C         C         1.0       0.8024916700732609  0.8937656390991497  0.11741944493595284          1.0000   
         H         H         1.0       0.6221709112256866  0.6878257874654415  0.48913930390941884          1.0000   
         H         H         1.0       0.6889722007110298  0.7567672417737913  0.09934068097298171          1.0000   
         H         H         1.0       0.708835430733398   0.7285217791023846  0.0954391092003421 1.0000   
         H         H         1.0       0.6412832252648472  0.6575936695781114  0.47848465677589336          1.0000   
         H         H         1.0       0.6528233239187912  0.7635364136830589  0.1127230456901677 1.0000   
         H         H         1.0       0.6021369452962664  0.7290411463092838  0.1235887372894807 1.0000   
         H         H         1.0       0.5778330162738582  0.721454695351617   0.04091739902431174          1.0000   
         H         H         1.0       0.5645596263445525  0.675610648516838   0.5053498309124306 1.0000   
         H         H         1.0       0.7359595847650526  0.8141876809396651  0.05489423934690123          1.0000   
         H         H         1.0       0.773934396422067   0.8493169494456546  0.07955671265872788          1.0000   
         H         H         1.0       0.7167471883531175  0.844885244801853   0.1414008996464925 1.0000   
         H         H         1.0       0.6757263299967702  0.8170854682052324  0.1091725112496581 1.0000   
         H         H         1.0       0.7960067532265073  0.7970164747957073  0.1168770737504594 1.0000   
         H         H         1.0       0.8046926890606751  0.8437404365696071  0.109716304568425  1.0000   
         H         H         1.0       0.7501286807703375  0.8321406660834081  0.17649998268494438          1.0000   
         H         H         1.0       0.7417330601744183  0.787290231987102   0.18616633240015382          1.0000   
         H         H         1.0       0.74211595188853    0.8930789803245388  0.13609964418820025          1.0000   
         H         H         1.0       0.7522475606173654  0.9333501183743509  0.16594126179230623          1.0000   
         H         H         1.0       0.7951365741380241  0.9102233586309555  0.21910766269813375          1.0000   
         H         H         1.0       0.799143052566167   0.880393294514693   0.18572113732340154          1.0000   
         H         H         1.0       0.8373559853770292  0.8936376146166822  0.13757184572202283          1.0000   
         H         H         1.0       0.8773045095329598  0.9416574601125323  0.1182147959409638 1.0000   
         H         H         1.0       0.8164928920544593  0.9394861104916926  0.06506957599665326          1.0000   
         H         H         1.0       0.7759770972297679  0.8992487900938257  0.0904880087179706 1.0000   
         C         C         1.0       0.9748807944226147  0.3894852486018862  0.14502184290009473          1.0000   
         C         C         1.0       0.9641701505876493  0.4067130542501603  0.14227550967957067          1.0000   
         C         C         1.0       0.9818139632146572  0.4352049943098331  0.1360418618107659 1.0000   
         C         C         1.0       0.01127222541182027           0.4471434247209289 0.13039836976330152          1.0000   
         C         C         1.0       0.021391552568039485          0.4287672290610816 0.13359884539523995          1.0000   
         C         C         1.0       0.002760998255193936          0.39991782430698947          0.13918116741595085          1.0000   
         H         H         1.0       0.9409525664684972  0.39841638917819755           0.14829541503759547          1.0000   
         H         H         1.0       0.9723499861025363  0.44738512365870975           0.1303826334360565 1.0000   
         H         H         1.0       0.04396466529076859           0.43654960970812573          0.12984417847700488          1.0000   
         H         H         1.0       0.010950144723685495          0.38578687554966035          0.13869154415316676          1.0000   
         C         C         1.0       0.0693808011012691  0.4893227843488929  0.15316780627954987          1.0000   
         C         C         1.0       0.06447537900536005           0.4956795540729744 0.12682232698659332          1.0000   
         C         C         1.0       0.08689937130172522           0.5157279415309499 0.10988469952689944          1.0000   
         C         C         1.0       0.11379909616696494           0.5258154387080617 0.11824347414318381          1.0000   
         C         C         1.0       0.11942471867359616           0.5170281314101739 0.14245084222347018          1.0000   
         C         C         1.0       0.09645196724117029           0.4997328987339804 0.16028426208035412          1.0000   
         C         C         1.0       0.03184117076799864           0.4779816007478957 0.11467126532705994          1.0000   
         C         C         1.0       0.022765090725691772          0.5013090772076155 0.11800216584781537          1.0000   
         C         C         1.0       0.02996369433180668           0.5212279599702118 0.09676517871958676          1.0000   
         C         C         1.0       0.0260711540709897  0.5438680499577492  0.10049854275151587          1.0000   
         C         C         1.0       0.015590461810303546          0.5466551586170931 0.12490313252210741          1.0000   
         C         C         1.0       0.008022444688386976          0.5273505464659171 0.1447491260988434 1.0000   
         C         C         1.0       0.01046092601959514           0.5036465720296129 0.14213952355719228          1.0000   
         C         C         1.0       0.048321212395517454          0.45960129613178213          0.07338998919875796          1.0000   
         C         C         1.0       0.04753112177097285           0.45279635383745787          0.04589724170933293          1.0000   
         C         C         1.0       0.9277251775131865  0.3651184586688759  0.49538080871939955          1.0000   
         C         C         1.0       0.9170287517217535  0.3821410574728112  0.4994033140229308 1.0000   
         C         C         1.0       0.006719437023795516          0.46189855063476176          0.0678913272142953 1.0000   
         C         C         1.0       0.02872592227806714           0.4667807697827682 0.08473935193685525          1.0000   
         C         C         1.0       0.937452293702991   0.36158731275134576           0.464088849897765  1.0000   
         C         C         1.0       0.03052907880352267           0.4191837613658299 0.4788563347993017 1.0000   
         C         C         1.0       0.02014182839801999           0.39112546895818495          0.47552746388637906          1.0000   
         C         C         1.0       0.9905516725087314  0.3729478043940338  0.47470156722688145          1.0000   
         C         C         1.0       0.9720279224835002  0.3828447816390778  0.4689373722234523 1.0000   
         C         C         1.0       0.9840286319052158  0.4118897700502354  0.4722227730542935 1.0000   
         C         C         1.0       0.012695183296359077          0.42982011071761717          0.47789569504284646          1.0000   
         C         C         1.0       0.9275505267113636  0.37183050501139014           0.4386189432202253 1.0000   
         C         C         1.0       0.9006813073330531  0.3690334137894667  0.43763849145393724          1.0000   
         C         C         1.0       0.8944718423722342  0.3842281012127871  0.4197572399828306 1.0000   
         C         C         1.0       0.9148476865201427  0.401432080087474   0.4004366203075303 1.0000   
         C         C         1.0       0.9382896704401865  0.39967228966399765           0.39691361207047005          1.0000   
         C         C         1.0       0.9459766937075419  0.38695608848414476           0.4162795444014853 1.0000   
         C         C         1.0       0.9420778845748721  0.3236444883360346  0.43712103100921   1.0000   
         C         C         1.0       0.9362928296278622  0.29743924762543705           0.43182784950124675          1.0000   
         C         C         1.0       0.912790816128611   0.2742422053800071  0.44574919011831876          1.0000   
         C         C         1.0       0.8948353792115377  0.2788448268785126  0.4623832948395885 1.0000   
         C         C         1.0       0.9000897754790874  0.3062307668379144  0.46491922519774487          1.0000   
         C         C         1.0       0.9266832779984704  0.3294836863559445  0.45659858965916766          1.0000   
         H         H         1.0       0.05283293076485296           0.47532384374852427          0.16762962929736414          1.0000   
         H         H         1.0       0.08430955864727764           0.522315542474037  0.0892675389735781 1.0000   
         H         H         1.0       0.13131447265111365           0.5411664254263934 0.10651226639853771          1.0000   
         H         H         1.0       0.09976601465000973           0.4937937032914652 0.1806471084097363 1.0000   
         H         H         1.0       0.04368561508893043           0.5229823044866859 0.07974992973711417          1.0000   
         H         H         1.0       0.9602342796401679  0.48551390961659485           0.5356373788131111 1.0000   
         H         H         1.0       0.9998648994196647  0.5301188364504136  0.1637730198854062 1.0000   
         H         H         1.0       0.0011075759333603052         0.4883138178752235 0.15790674300550475          1.0000   
         H         H         1.0       0.06855205819103927           0.46503750201488664          0.08472360348554235          1.0000   
         H         H         1.0       0.06514969439015261           0.4509477974083387 0.03854327912625652          1.0000   
         H         H         1.0       0.9153445453098497  0.393491672593002   0.4826913267582257 1.0000   
         H         H         1.0       0.9902855030286287  0.46570764401947073           0.07445232286784308          1.0000   
         H         H         1.0       0.03288620261706626           0.38076827700042426          0.4755039946412839 1.0000   
         H         H         1.0       0.9804755425137368  0.34969512690002796           0.47819255139653033          1.0000   
         H         H         1.0       0.9704485143851744  0.4206908184945298  0.4719521774690306 1.0000   
         H         H         1.0       0.020602675263122785          0.45204440005691393          0.4780521714710938 1.0000   
         H         H         1.0       0.8839616672463291  0.35639605415292325           0.45334715759704264          1.0000   
         H         H         1.0       0.8747163147106646  0.3837171954171192  0.4231332463749119 1.0000   
         H         H         1.0       0.9544694728984041  0.41295645666238523           0.381784100393784  1.0000   
         H         H         1.0       0.9657473964507342  0.38801087121097905           0.41446562963962136          1.0000   
         H         H         1.0       0.9589617371638944  0.34151891526482225           0.42655370549999233          1.0000   
         H         H         1.0       0.9498946276261733  0.2939067735192186  0.4182281347967309 1.0000   
         H         H         1.0       0.0405300193242113  0.3661158063037787  0.019350076624565782         1.0000   
         H         H         1.0       0.03160488555277907           0.4023188355827674 0.03265935380512697          1.0000   
         C         C         1.0       0.948262193282877   0.4592494248701547  0.3457266371910895 1.0000   
         C         C         1.0       0.9495400000927351  0.47022935823263295           0.3199064529203588 1.0000   
         C         C         1.0       0.9752974755106133  0.49419431153567367           0.31091441204113357          1.0000   
         C         C         1.0       0.999958938436687   0.5051197670272572  0.32601572667368184          1.0000   
         C         C         1.0       0.9979396168317174  0.49449503735102884           0.3529223867426133 1.0000   
         C         C         1.0       0.9721642456098153  0.4726788355438657  0.36226415546270285          1.0000   
         H         H         1.0       0.9329018556721798  0.45906862601558235           0.3051892133195344 1.0000   
         H         H         1.0       0.9762971625673734  0.5025096073148902  0.2902890807140342 1.0000   
         H         H         1.0       0.017538466501394234          0.5011886899801182 0.3622150564120342 1.0000   
         H         H         1.0       0.9739800004723846  0.464261287770821   0.3826030423829228 1.0000   
         C         C         1.0       0.06344591895676908           0.5548042024335802 0.34556980923710917          1.0000   
         C         C         1.0       0.05898072685993557           0.5382448402319554 0.3234345009575069 1.0000   
         C         C         1.0       0.08315412084395546           0.5408246662815256 0.3109645273974245 1.0000   
         C         C         1.0       0.10786378017095678           0.5519031465147767 0.32609393478775556          1.0000   
         C         C         1.0       0.11136397946987002           0.5661523843130744 0.34984724525681926          1.0000   
         C         C         1.0       0.09046209944499328           0.5706920942894175 0.35805418328795735          1.0000   
         C         C         1.0       0.02813476927930547           0.5205241615372352 0.30690845772540293          1.0000   
         C         C         1.0       0.028697324696248527          0.5435911776212774 0.2867029413516134 1.0000   
         C         C         1.0       0.04543664824411864           0.5498181338908447 0.2629293850559175 1.0000   
         C         C         1.0       0.04750956193578415           0.5687892133648736 0.24312088853143027          1.0000   
         C         C         1.0       0.03354654779570598           0.5832820956617357 0.24910937302815553          1.0000   
         C         C         1.0       0.018470192246234696          0.5786307283465598 0.2741048914970185 1.0000   
         C         C         1.0       0.016375990457429213          0.5595851967453349 0.2930092530600463 1.0000   
         C         C         1.0       0.033201981078704756          0.47693917480537007          0.31356238133915904          1.0000   
         C         C         1.0       0.02955378522986485           0.451950637457366  0.3055992317937251 1.0000   
         C         C         1.0       0.023800209045463205          0.4419166434378489 0.27811868953405616          1.0000   
         C         C         1.0       0.014398530802475218          0.45495832961533006          0.26071439315123957          1.0000   
         C         C         1.0       0.016710463016159638          0.47997944591589287          0.26883991006388414          1.0000   
         C         C         1.0       0.02504177568459487           0.4909344070229295 0.29587603448875843          1.0000   
         C         C         1.0       0.031755621490869856          0.41908333825725913          0.2678964112264549 1.0000   
         C         C         1.0       0.11941609582451264           0.48624768146163616          0.25910118419205186          1.0000   
         C         C         1.0       0.11055754179247423           0.4678191254564537 0.2807508884382147 1.0000   
         C         C         1.0       0.08289561179589201           0.4462395369461611 0.2839473816954022 1.0000   
         C         C         1.0       0.06422722088349175           0.440108443550764  0.26302375815068624          1.0000   
         C         C         1.0       0.07376802634382552           0.4590078634568547 0.24109496417537837          1.0000   
         C         C         1.0       0.10140891104859592           0.4827953195727985 0.23970922538557518          1.0000   
         C         C         1.0       0.014514136758705831          0.40028076482954494          0.24390993442294692          1.0000   
         C         C         1.0       0.9857546184723786  0.3905241857263466  0.24142176553990033          1.0000   
         C         C         1.0       0.9701418505469663  0.3720730236547704  0.22078768712943206          1.0000   
         C         C         1.0       0.9822413992609751  0.3633526104528438  0.20137612815995107          1.0000   
         C         C         1.0       0.01049020130891476           0.37210086131706743          0.2042410962334102 1.0000   
         C         C         1.0       0.02660384125319415           0.3915492547346542 0.22432197815033247          1.0000   
         C         C         1.0       0.03948218153735872           0.3787341588077482 0.2867350646656511 1.0000   
         C         C         1.0       0.030844001696528567          0.3548123624567433 0.3022792704449352 1.0000   
         C         C         1.0       0.00979717010698189           0.345797035037311  0.3218438456314749 1.0000   
         C         C         1.0       0.9955559155576691  0.3597808280115308  0.32493210431668795          1.0000   
         C         C         1.0       0.003596621923244836          0.38367098007233325          0.3093876532287809 1.0000   
         C         C         1.0       0.024683306944292216          0.39269293016376144          0.2884009073959764 1.0000   
         H         H         1.0       0.04582445092363385           0.5560273724563953 0.3535816959887627 1.0000   
         H         H         1.0       0.08271061928037729           0.5305810950258794 0.29127841618272576          1.0000   
         H         H         1.0       0.12561706401623046           0.5508485628363583 0.31699367867261113          1.0000   
         H         H         1.0       0.08856685619218595           0.5810951471478274 0.3763716836495455 1.0000   
         H         H         1.0       0.05750578023681544           0.5389384780576852 0.25950306108701093          1.0000   
         H         H         1.0       0.06203499235222996           0.5739949903715613 0.2246384986513189 1.0000   
         H         H         1.0       0.0071784204418241515         0.590361210566272  0.2788059949909084 1.0000   
         H         H         1.0       0.004369243251204358          0.5546401285718161 0.31246975175302794          1.0000   
         H         H         1.0       0.038257628321997084          0.48110259311798914          0.33496383601430774          1.0000   
         H         H         1.0       0.03664764758709471           0.44233117642379266          0.31958675920918883          1.0000   
         H         H         1.0       0.007640990440438866          0.4468947768788923 0.2396790616238484 1.0000   
         H         H         1.0       0.013140249665698489          0.49151358135820994          0.253926546008414  1.0000   
         H         H         1.0       0.12507885421141163           0.46782142030584184          0.2957800707057263 1.0000   
         H         H         1.0       0.07647816699630555           0.4353738564942414 0.3038985133991005 1.0000   
         H         H         1.0       0.05913966432514073           0.4542553960613427 0.22444593416462819          1.0000   
         H         H         1.0       0.10761639195943801           0.49605641993476757          0.2224664662768242 1.0000   
         H         H         1.0       0.974780998917315   0.39594624270827505           0.257070124322375  1.0000   
         H         H         1.0       0.9484649498048814  0.3687458801491147  0.21734849801233763          1.0000   
         H         H         1.0       0.02022718618661723           0.3628927169193829 0.19239368787661223          1.0000   
         H         H         1.0       0.049200400057269444          0.39649019634221755          0.2262182489976589 1.0000   
         H         H         1.0       0.052997599524022165          0.38282634848131414          0.27001914475868843          1.0000   
         H         H         1.0       0.039655592476796064          0.34228233116377127          0.29864030044525536          1.0000   
         H         H         1.0       0.9779036572173933  0.3527862385781759  0.33889568860384306          1.0000   
         H         H         1.0       0.9912000770154423  0.3927500071835     0.3142214018311624 1.0000   
         C         C         1.0       0.8730392541102467  0.5957699410041716  0.44983750398942945          1.0000   
         C         C         1.0       0.8644534308382651  0.5752803374916909  0.4704272761069631 1.0000   
         C         C         1.0       0.9733431339736474  0.6729394854174005  0.046964809553833406         1.0000   
         C         C         1.0       0.9090694545794912  0.6060017957858412  0.4938232168806439 1.0000   
         C         C         1.0       0.9150839618020071  0.6264872829166747  0.4747525269759783 1.0000   
         C         C         1.0       0.8972272767186533  0.6219404720649779  0.45296586811690936          1.0000   
         H         H         1.0       0.8460865405802549  0.5534423666068655  0.4684937463252537 1.0000   
         H         H         1.0       0.9659524909224401  0.662258324925966   0.06611066215965943          1.0000   
         H         H         1.0       0.9343540994332946  0.6461174435524174  0.47406665188467706          1.0000   
         H         H         1.0       0.9056016687940212  0.6380440554958208  0.4363747411141274 1.0000   
         C         C         1.0       0.9678074119578948  0.616093112729447   0.47958768162042803          1.0000   
         C         C         1.0       0.9621178405444207  0.6230063326042011  0.5060705988534595 1.0000   
         C         C         1.0       0.07672341521387017           0.6993854561286428 0.06332762811839965          1.0000   
         C         C         1.0       0.011813521870893014          0.6476403942890969 0.5144411089348335 1.0000   
         C         C         1.0       0.018165176828212885          0.6411242489407476 0.48862746005631064          1.0000   
         C         C         1.0       0.9953777008899831  0.625632290735744   0.4718350106082683 1.0000   
         C         C         1.0       0.02196091453933291           0.6806035505477853 0.062430350698842875         1.0000   
         C         C         1.0       0.011180553722005326          0.6528584801961753 0.08014815025705944          1.0000   
         C         C         1.0       0.02160072798087409           0.6531230216830167 0.10648806219228718          1.0000   
         C         C         1.0       0.014586165700058107          0.6287989692775247 0.12019120961028618          1.0000   
         C         C         1.0       0.9933942933685525  0.6020146597045589  0.11000002582447768          1.0000   
         C         C         1.0       0.9790409724374808  0.600928742215435   0.08612092643793483          1.0000   
         C         C         1.0       0.9175678098113275  0.558649136745413   0.5185658932998352 1.0000   
         C         C         1.0       0.048213920330592686          0.7367478447001238 0.06529040936681789          1.0000   
         C         C         1.0       0.04963092004838132           0.7606399155132053 0.07270785068680034          1.0000   
         C         C         1.0       0.03723717638004609           0.760807943533402  0.09825834511042748          1.0000   
         C         C         1.0       0.021528622253503382          0.7349882405245145 0.11352598989701522          1.0000   
         C         C         1.0       0.019060715793253413          0.7113591565778571 0.10306875161458375          1.0000   
         C         C         1.0       0.03113631951365492           0.7104711390666246 0.07790031376997465          1.0000   
         C         C         1.0       0.03840177867417127           0.788544241268567  0.10801709639238612          1.0000   
         C         C         1.0       0.13232501775686115           0.8357262398221026 0.11107099020291622          1.0000   
         C         C         1.0       0.11861042087241942           0.8405584706455334 0.09027772975032158          1.0000   
         C         C         1.0       0.08898181506725521           0.8268430786273862 0.09030980992404056          1.0000   
         C         C         1.0       0.07216892131008956           0.8083686979875139 0.11086447801963692          1.0000   
         C         C         1.0       0.0862309227423592  0.8056029283442663  0.13241327837404965          1.0000   
         C         C         1.0       0.1152701953879245  0.8179980460069347  0.13278766306197695          1.0000   
         C         C         1.0       0.019615525473836604          0.7863799352686501 0.13444202917038056          1.0000   
         C         C         1.0       0.9900440243487215  0.7651230064791935  0.13738575258377367          1.0000   
         C         C         1.0       0.97486512875699    0.7627196191092159  0.16101134304284884          1.0000   
         C         C         1.0       0.988993639244051   0.7817635999151713  0.18258883345608679          1.0000   
         C         C         1.0       0.016497647562006446          0.8045636631683775 0.1788018245636247 1.0000   
         C         C         1.0       0.032654304874874196          0.8067206316110562 0.1552855452049016 1.0000   
         C         C         1.0       0.029983166706296638          0.8251846030471947 0.08536015970043792          1.0000   
         C         C         1.0       0.015573259527010608          0.8340827464524511 0.07034872954926247          1.0000   
         C         C         1.0       0.9924970429160137  0.8144637943559551  0.05561226770091302          1.0000   
         C         C         1.0       0.985295978381766   0.7865069245395286  0.054409125611404686         1.0000   
         C         C         1.0       4.007126022997909e-06         0.7772355414182605 0.06949836795508053          1.0000   
         C         C         1.0       0.023565082263743875          0.7972117373998941 0.08544233076949817          1.0000   
         H         H         1.0       0.9497166825294839  0.6030758134063202  0.46487781346119017          1.0000   
         H         H         1.0       0.07669280219313779           0.7072879641781232 0.0851889917070156 1.0000   
         H         H         1.0       0.02942421930786375           0.6646564847773966 0.5267548772451806 1.0000   
         H         H         1.0       0.0005933403147414401         0.6227662508059234 0.45087139917364966          1.0000   
         H         H         1.0       0.03996312241719413           0.6719463746336499 0.11431331374546164          1.0000   
         H         H         1.0       0.026829351426912895          0.6306393200023369 0.13863562742531158          1.0000   
         H         H         1.0       0.9046558811528123  0.5156196011718983  0.5201986797571475 1.0000   
         H         H         1.0       0.9181872776967929  0.5597215872924214  0.49689872416283354          1.0000   
         H         H         1.0       0.06136720290556097           0.7388399489523796 0.04756959505577081          1.0000   
         H         H         1.0       0.06183893469048507           0.7789167890040692 0.05919266905633272          1.0000   
         H         H         1.0       0.010051648955571757          0.7332599226527241 0.1340968823559926 1.0000   
         H         H         1.0       0.005259678731436068          0.6931885233548225 0.11482559834106032          1.0000   
         H         H         1.0       0.12994222624570276           0.8545985339331608 0.07436797588324054          1.0000   
         H         H         1.0       0.07968601167320899           0.8309192510889092 0.07210483003746977          1.0000   
         H         H         1.0       0.07416020576793803           0.7920666434206258 0.14832431418998662          1.0000   
         H         H         1.0       0.12498862648634082           0.8111398555732571 0.14872843436471464          1.0000   
         H         H         1.0       0.9779756507192489  0.7514754664367366  0.12064228363971197          1.0000   
         H         H         1.0       0.9519326040295775  0.7499832124107164  0.16013099465980046          1.0000   
         H         H         1.0       0.029851432703148273          0.8185322309280676 0.19445916833518043          1.0000   
         H         H         1.0       0.05468357521740619           0.82172001810095   0.15690400595425322          1.0000   
         H         H         1.0       0.04341974979329688           0.8396987935283339 0.10057482782455937          1.0000   
         H         H         1.0       0.016756145907035114          0.8538898976018384 0.07461299268818924          1.0000   
         H         H         1.0       0.9651638355190043  0.7701758186159644  0.043162412806913825         1.0000   
         H         H         1.0       0.9916042992362428  0.7542399865192457  0.07207649888568905          1.0000   
         C         C         1.0       0.984638605158394   0.7415624843119875  0.23508515800703264          1.0000   
         C         C         1.0       0.9816061238500674  0.7157064743558877  0.22930754943803808          1.0000   
         C         C         1.0       0.00034088236756435464        0.7089805424624984 0.2402094472982845 1.0000   
         C         C         1.0       0.021946020753069506          0.7275660723360831 0.25822274161833625          1.0000   
         C         C         1.0       0.025407681067688204          0.7538655344108759 0.2632436484769974 1.0000   
         C         C         1.0       0.005481456075134394          0.7602187130906095 0.2531324330014178 1.0000   
         H         H         1.0       0.9650016739985212  0.6999636676719044  0.217473578637675  1.0000   
         H         H         1.0       0.9970738456374146  0.6878126699559405  0.2361447898674601 1.0000   
         H         H         1.0       0.04158331279524341           0.7697526670558282 0.2770486747090795 1.0000   
         H         H         1.0       0.006786582089170823          0.7796792875436179 0.2585965346927541 1.0000   
         C         C         1.0       0.08946862231129786           0.7649725152976041 0.2512806109001525 1.0000   
         C         C         1.0       0.07663400235926435           0.7470818834582803 0.27382291942226306          1.0000   
         C         C         1.0       0.09331546851721667           0.750169947234317  0.2968220118998868 1.0000   
         C         C         1.0       0.12195590887535038           0.7700462214962558 0.2956092963502686 1.0000   
         C         C         1.0       0.1350725598628914  0.7860151716272485  0.2727769249360883 1.0000   
         C         C         1.0       0.11936418274771551           0.7855248400551375 0.2521922406965815 1.0000   
         C         C         1.0       0.043892524732770166          0.7206385633702361 0.2722432536003821 1.0000   
         C         C         1.0       0.05035734266681935           0.6983292293340462 0.2590129062109735 1.0000   
         C         C         1.0       0.05417615131063336           0.6808495030394159 0.27503816055122743          1.0000   
         C         C         1.0       0.05651749878631884           0.6593405971045877 0.2632762440856568 1.0000   
         C         C         1.0       0.05538078560257964           0.65451867476808   0.23559178136197417          1.0000   
         C         C         1.0       0.05408453351630493           0.674164037848454  0.21937707331370634          1.0000   
         C         C         1.0       0.0524831028614019  0.6958419726250411  0.23084618793514095          1.0000   
         C         C         1.0       0.031346869283862544          0.7274132782398357 0.3254037686622449 1.0000   
         C         C         1.0       0.02086729442501345           0.7155812085694687 0.35133779242623797          1.0000   
         C         C         1.0       0.0014000670940923499         0.6870369788927204 0.3532045586398888 1.0000   
         C         C         1.0       0.9937350968535789  0.6700614605155092  0.3294987080105881 1.0000   
         C         C         1.0       0.004992904846746082          0.6814315289317643 0.304668195266782  1.0000   
         C         C         1.0       0.027194859977252017          0.7101186867669166 0.30204978063141946          1.0000   
         C         C         1.0       0.9960873188848213  0.6717924724873768  0.38338688067637783          1.0000   
         C         C         1.0       0.06983697654402495           0.6636597401013979 0.3652935131689877 1.0000   
         C         C         1.0       0.0733412715389494  0.6851745023592312  0.3820163467175324 1.0000   
         C         C         1.0       0.049584197437660404          0.6858466955548751 0.39011049433425476          1.0000   
         C         C         1.0       0.021403872538972905          0.6644658410951139 0.3827234490540418 1.0000   
         C         C         1.0       0.01836206370162308           0.6412056184662825 0.3685524536398381 1.0000   
         C         C         1.0       0.04211488938214444           0.6401088076750829 0.3620148396830398 1.0000   
         C         C         1.0       0.963200381051537   0.6454454909855464  0.38533211025903336          1.0000   
         C         C         1.0       0.941684382198627   0.6473460106804184  0.37304240692200585          1.0000   
         C         C         1.0       0.913961774977227   0.6262918313206636  0.37605015182140183          1.0000   
         C         C         1.0       0.9068780785058888  0.6028381258399549  0.39165472011726055          1.0000   
         C         C         1.0       0.9280679763215628  0.6011433635635394  0.4052523755250521 1.0000   
         C         C         1.0       0.9562183618051164  0.6229336295297349  0.4018770009220412 1.0000   
         C         C         1.0       0.004387116409205083          0.6852542924587772 0.4360656409259207 1.0000   
         C         C         1.0       0.007704905992000022          0.702805625208181  0.45780532208495534          1.0000   
         C         C         1.0       0.9981206596675799  0.720699454149864   0.45601410867090836          1.0000   
         C         C         1.0       0.9879873948750324  0.7228286139392432  0.4302135364523992 1.0000   
         C         C         1.0       0.9870148023141387  0.70694087477884    0.40737199636209376          1.0000   
         C         C         1.0       0.9966364982986994  0.688679827588058   0.4100673643909913 1.0000   
         H         H         1.0       0.0765705516728726  0.7609461604336332  0.23174346905330823          1.0000   
         H         H         1.0       0.08552803735963448           0.7353830376953857 0.31350681522738   1.0000   
         H         H         1.0       0.13448067771745664           0.7698690825879868 0.3124058992867146 1.0000   
         H         H         1.0       0.1278335330984286  0.7977151742470698  0.2349672608575281 1.0000   
         H         H         1.0       0.057999412374995396          0.6846227617464897 0.2970921227181637 1.0000   
         H         H         1.0       0.058550929863544265          0.6452519984546035 0.27672351174027326          1.0000   
         H         H         1.0       0.052056629363789186          0.6713522767525937 0.197869129069018  1.0000   
         H         H         1.0       0.05070181252372463           0.7105528542922375 0.21755780901275923          1.0000   
         H         H         1.0       0.046330783571036475          0.7486093878869883 0.323821453462542  1.0000   
         H         H         1.0       0.031156665089152824          0.7278341583742397 0.36857583945071404          1.0000   
         H         H         1.0       0.9767478557405405  0.6482713050295671  0.3306009342602134 1.0000   
         H         H         1.0       0.9986137813570422  0.6668483864229909  0.2875450074818774 1.0000   
         H         H         1.0       0.09469456937814759           0.7024962068394017 0.38830237269050133          1.0000   
         H         H         1.0       0.053983594707372747          0.7056946302406588 0.3998934534929752 1.0000   
         H         H         1.0       0.9976501051367535  0.6242811054773503  0.3622090823862289 1.0000   
         H         H         1.0       0.04135357491383773           0.6225520135451372 0.35176180859575795          1.0000   
         H         H         1.0       0.9476111359166659  0.6666898202268262  0.360974079655197  1.0000   
         H         H         1.0       0.8978949439337947  0.6280020410589001  0.36645740414539096          1.0000   
         H         H         1.0       0.9243467418045509  0.5857551254141335  0.4194137856441792 1.0000   
         H         H         1.0       0.9743943421031043  0.6255217415911721  0.4142063837430179 1.0000   
         H         H         1.0       0.01365793093526646           0.6730977138295071 0.4396709524062193 1.0000   
         H         H         1.0       0.016078158449011726          0.7018328682744682 0.47624465211985256          1.0000   
         H         H         1.0       0.9790310024580917  0.7359034199487667  0.4258398305942785 1.0000   
         H         H         1.0       0.9763081378150525  0.7099781048590743  0.38993283203815876          1.0000   
         C         C         1.0       0.33260677334548305           0.8600252338146251 0.2939284338698177 1.0000   
         C         C         1.0       0.33563068001779034           0.8375753179060867 0.2866743958332423 1.0000   
         C         C         1.0       0.322711066165649   0.822398984082466   0.2644147164488651 1.0000   
         C         C         1.0       0.30924397287839184           0.8297961462741471 0.24657090507417467          1.0000   
         C         C         1.0       0.3093823057419352  0.8551009188093118  0.2514231433765116 1.0000   
         C         C         1.0       0.32134488062218447           0.869353710551055  0.2754687794566767 1.0000   
         H         H         1.0       0.34531252757327324           0.8300476517017105 0.30176359101491307          1.0000   
         H         H         1.0       0.3238437821856812  0.8039016072112063  0.2620987336236365 1.0000   
         H         H         1.0       0.2993128948531404  0.8621811210001366  0.2380112741359674 1.0000   
         H         H         1.0       0.31979792179029    0.8867714486966487  0.2809684431844123 1.0000   
         C         C         1.0       0.24695184360028732           0.7867106838703799 0.2591589350053387 1.0000   
         C         C         1.0       0.25883915506429095           0.8023830762393057 0.23523382938874532          1.0000   
         C         C         1.0       0.2455333621079312  0.8159969315575688  0.2246087510173909 1.0000   
         C         C         1.0       0.2188714894414405  0.8101630500532924  0.23569672262682542          1.0000   
         C         C         1.0       0.20713829464742706           0.792123038435577  0.2580637597018883 1.0000   
         C         C         1.0       0.22143008885186982           0.7805317536939523 0.2693819756674281 1.0000   
         C         C         1.0       0.2882560734962343  0.8073563140226019  0.22252097994322392          1.0000   
         C         C         1.0       0.28913114699458936           0.7785148894397017 0.21961369862164412          1.0000   
         C         C         1.0       0.3137576791569428  0.7802217987065211  0.20954688703509117          1.0000   
         C         C         1.0       0.31470119374748995           0.7562016584277652 0.2053858501922935 1.0000   
         C         C         1.0       0.28959018821119364           0.7298316110948266 0.20893485974684103          1.0000   
         C         C         1.0       0.2644493379767591  0.7278085910918014  0.21619670884114214          1.0000   
         C         C         1.0       0.26396318144474745           0.7515553792400429 0.2216158302418031 1.0000   
         C         C         1.0       0.27380271726541594           0.8028845805650271 0.17240971475255254          1.0000   
         C         C         1.0       0.27308803257240427           0.8130308730082387 0.14698807468361616          1.0000   
         C         C         1.0       0.2914462242480332  0.8408617141156025  0.14073541545106868          1.0000   
         C         C         1.0       0.31427388811850804           0.8561472029543751 0.15931690956213965          1.0000   
         C         C         1.0       0.3165445912791589  0.8457177377304946  0.18409219456796624          1.0000   
         C         C         1.0       0.29365649673663463           0.8192811856649638 0.1919850141326949 1.0000   
         C         C         1.0       0.2874516311074778  0.8552954522078322  0.11529976132989603          1.0000   
         C         C         1.0       0.19871365093084187           0.8295811551050237 0.10200860606041229          1.0000   
         C         C         1.0       0.20736203506122444           0.8284518937459984 0.12757871763991888          1.0000   
         C         C         1.0       0.23526388929649258           0.8369675795914965 0.13201995582513837          1.0000   
         C         C         1.0       0.25444457655986236           0.8439265515744616 0.10936278529468171          1.0000   
         C         C         1.0       0.2445147573873895  0.8440559532256394  0.08325391817822074          1.0000   
         C         C         1.0       0.21605477057435413           0.8353707441572051 0.07951341577016306          1.0000   
         C         C         1.0       0.3066593801522467  0.8515386161767049  0.09173256695694253          1.0000   
         C         C         1.0       0.33655802911421423           0.8700571660055801 0.08846530057439222          1.0000   
         C         C         1.0       0.3524916611307663  0.8666967509184256  0.06860243727043303          1.0000   
         C         C         1.0       0.33855512240468405           0.8418228787997517 0.05230989698138221          1.0000   
         C         C         1.0       0.3096068617176752  0.8245602328033699  0.054461314349146826         1.0000   
         C         C         1.0       0.2938955884699458  0.8279980860734155  0.07457528815580665          1.0000   
         C         C         1.0       0.3056240455292017  0.9057507440775583  0.09780989190896912          1.0000   
         C         C         1.0       0.31162619894910687           0.9327170185898475 0.10046487335330116          1.0000   
         C         C         1.0       0.30830141976783326           0.9426123662780107 0.12591236524135616          1.0000   
         C         C         1.0       0.29716957965202334           0.9241583658849584 0.14828775928488505          1.0000   
         C         C         1.0       0.29184231718284553           0.8975907681054363 0.14454036080700622          1.0000   
         C         C         1.0       0.2968353830766302  0.8878885228013226  0.11936486537825994          1.0000   
         H         H         1.0       0.2570310357126186  0.7761560518002881  0.2670307004073792 1.0000   
         H         H         1.0       0.25186945534277255           0.830237885747108  0.20733431321021784          1.0000   
         H         H         1.0       0.20866858855619547           0.8196940165219352 0.22610849205984848          1.0000   
         H         H         1.0       0.21274433743860185           0.7666695901010824 0.28530393881019805          1.0000   
         H         H         1.0       0.33189385429279605           0.8014071980800068 0.20777668165626778          1.0000   
         H         H         1.0       0.3358376158625176  0.7603186297548222  0.19692312672215656          1.0000   
         H         H         1.0       0.2441093168378664  0.7085070203945627  0.21967924618538537          1.0000   
         H         H         1.0       0.24350797619860137           0.7489156789636899 0.2267538902553602 1.0000   
         H         H         1.0       0.25751047803178306           0.7822399904135799 0.17831154085003106          1.0000   
         H         H         1.0       0.25552776683183986           0.7971759932335599 0.13306119925102938          1.0000   
         H         H         1.0       0.32722902802295434           0.8787807331227607 0.1585362514810763 1.0000   
         H         H         1.0       0.33398913665160135           0.859280519793395  0.19845508830008063          1.0000   
         H         H         1.0       0.1934434944611608  0.8262937138836793  0.14534129799456794          1.0000   
         H         H         1.0       0.24103267744380932           0.8383457566627956 0.1534170604649019 1.0000   
         H         H         1.0       0.25721946237197485           0.8502879657366433 0.06395359268990868          1.0000   
         H         H         1.0       0.20897425015332663           0.835594108889951  0.05922819800586456          1.0000   
         H         H         1.0       0.3480938615666537  0.8884039236363304  0.10128003951026268          1.0000   
         H         H         1.0       0.3765646789837137  0.8849662076040588  0.06572856379201719          1.0000   
         H         H         1.0       0.29663953694587436           0.8046875215903891 0.04472247996382292          1.0000   
         H         H         1.0       0.27154760723014354           0.8115343238920619 0.07388432115978699          1.0000   
         H         H         1.0       0.3062756602084042  0.897789473362031   0.07801362980728739          1.0000   
         H         H         1.0       0.31872708651032383           0.9454600376261879 0.08310901705166536          1.0000   
         H         H         1.0       0.2948640923454304  0.9329912452369086  0.16869058752432606          1.0000   
         H         H         1.0       0.28281064617726254           0.8820029777982593 0.16131534888539042          1.0000   
         C         C         1.0       0.22381891418538433           0.8227266015103812 0.5180942506982463 1.0000   
         C         C         1.0       0.24075353548385098           0.8111616066131555 0.5135984503265982 1.0000   
         C         C         1.0       0.22906367889422038           0.7826129885587713 0.5119634949419705 1.0000   
         C         C         1.0       0.1992403965034675  0.7638685754535025  0.5094450608728294 1.0000   
         C         C         1.0       0.1822800022397096  0.7762376425666153  0.514017029510513  1.0000   
         C         C         1.0       0.19413513875441812           0.8043208617887546 0.521983222448064  1.0000   
         H         H         1.0       0.26371537492064673           0.824110125085547  0.5115967141403789 1.0000   
         H         H         1.0       0.24199031163390258           0.7741665945521282 0.5060603110038122 1.0000   
         H         H         1.0       0.15875714836113772           0.7645746353051392 0.5122561133288066 1.0000   
         H         H         1.0       0.1806253096089667  0.813174502693426   0.52416238501484   1.0000   
         C         C         1.0       0.1358826816789441  0.7060872708278276  0.5170875894308746 1.0000   
         C         C         1.0       0.15421814753615595           0.708799761125618  0.49530065516691096          1.0000   
         C         C         1.0       0.14282745928514287           0.6894102521075023 0.47397105219505226          1.0000   
         C         C         1.0       0.11428596974595974           0.6660163794557327 0.4742711295846368 1.0000   
         C         C         1.0       0.09777163397010587           0.6654075479303136 0.4964467534909458 1.0000   
         C         C         1.0       0.10793358474190846           0.684233520746691  0.5175915601063666 1.0000   
         C         C         1.0       0.18726750119389926           0.7334358981564045 0.4937118647583247 1.0000   
         C         C         1.0       0.19963328548946335           0.7151989412709056 0.5045032792397517 1.0000   
         C         C         1.0       0.2040354554114466  0.697836882383612   0.48740063827595886          1.0000   
         C         C         1.0       0.21115514219616735           0.6792446036807693 0.4967886407197424 1.0000   
         C         C         1.0       0.21426931863272597           0.6777476039477318 0.5244912448396896 1.0000   
         C         C         1.0       0.2098142570766728  0.6938887779737433  0.5428671920534031 1.0000   
         C         C         1.0       0.20283823369194645           0.7132681358895618 0.5325990789939673 1.0000   
         C         C         1.0       0.1737306799316486  0.7514962793109646  0.45180438272127665          1.0000   
         C         C         1.0       0.18093908355119917           0.7672247694720756 0.4286297414953714 1.0000   
         C         C         1.0       0.20591528172947654           0.7752118495232742 0.41411854047035773          1.0000   
         C         C         1.0       0.223361550378391   0.7658831289798015  0.4234306609676222 1.0000   
         C         C         1.0       0.21833396241390968           0.7531195897002955 0.448909663583212  1.0000   
         C         C         1.0       0.19359680735673315           0.7460719406841847 0.46371125768247956          1.0000   
         C         C         1.0       0.2125139990188145  0.7887860641101326  0.3847704444071451 1.0000   
         C         C         1.0       0.14094177564336935           0.7111390992295872 0.34347786063907926          1.0000   
         C         C         1.0       0.13881051099147906           0.7344492739526164 0.3488035431421199 1.0000   
         C         C         1.0       0.16077087838630563           0.7583447980399348 0.3606897810890917 1.0000   
         C         C         1.0       0.1875942971999537  0.7619224675400326  0.36629484671585655          1.0000   
         C         C         1.0       0.18941616275852288           0.7383169178693205 0.3610698672979134 1.0000   
         C         C         1.0       0.16609434588784547           0.7129434060197114 0.3511565948151464 1.0000   
         C         C         1.0       0.24449427805443358           0.8036123798772044 0.37507252083428777          1.0000   
         C         C         1.0       0.2668066311218236  0.8223870493370342  0.3916412544224314 1.0000   
         C         C         1.0       0.29449331150701047           0.8400778642229032 0.3828302595559409 1.0000   
         C         C         1.0       0.30238280045627597           0.8359013816204152 0.3562427437298211 1.0000   
         C         C         1.0       0.28040594921498063           0.8141442664221488 0.3399454731188318 1.0000   
         C         C         1.0       0.25224349919492733           0.7990930676760929 0.34916334435834023          1.0000   
         C         C         1.0       0.20617710001255765           0.8265279003254135 0.3622670924269959 1.0000   
         C         C         1.0       0.20731763552206717           0.8520643799194728 0.3615819991706512 1.0000   
         C         C         1.0       0.21202369408358673           0.8674494016762997 0.38527683735326973          1.0000   
         C         C         1.0       0.21196003996201734           0.8562028259547905 0.4101247607774922 1.0000   
         C         C         1.0       0.21153493283173008           0.8307646760758777 0.41008476214751205          1.0000   
         C         C         1.0       0.2082976188309057  0.8153067198685605  0.3866944229870258 1.0000   
         H         H         1.0       0.1451061327272498  0.7200732111544693  0.5350979806682254 1.0000   
         H         H         1.0       0.1576356942198052  0.6874896537939382  0.45831958918246635          1.0000   
         H         H         1.0       0.10607800224783953           0.6512221238589955 0.45658791324106623          1.0000   
         H         H         1.0       0.09447724877895537           0.6798730552568302 0.5360698120091396 1.0000   
         H         H         1.0       0.2016478746796949  0.6969378314550034  0.46612931354954945          1.0000   
         H         H         1.0       0.212257938396333   0.6644175537174942  0.4826956713899432 1.0000   
         H         H         1.0       0.21737077772952051           0.6936333346252995 0.5635044580166344 1.0000   
         H         H         1.0       0.20024048234727068           0.7264059581491064 0.5474913900912538 1.0000   
         H         H         1.0       0.1527419161536675  0.7447087361596288  0.46261877519230493          1.0000   
         H         H         1.0       0.1659463751827079  0.7725256956615904  0.42382763850638305          1.0000   
         H         H         1.0       0.24020142465544814           0.7673607169567015 0.4106531771168966 1.0000   
         H         H         1.0       0.23359920391422415           0.7498649280247647 0.45928904066243553          1.0000   
         H         H         1.0       0.1195655504939402  0.7341124101911932  0.3438971600149851 1.0000   
         H         H         1.0       0.15859376561582525           0.7758992894750739 0.36404153360591884          1.0000   
         H         H         1.0       0.20878416824948162           0.7392635795154915 0.36611138945557453          1.0000   
         H         H         1.0       0.1684193188284051  0.6953378548497661  0.3462655318011635 1.0000   
         H         H         1.0       0.2616156773894177  0.8254698583318417  0.41231132543325344          1.0000   
         H         H         1.0       0.31035814564490494           0.8520174035731855 0.39792128467710436          1.0000   
         H         H         1.0       0.28745515473847005           0.8116759701723856 0.32125920097161437          1.0000   
         H         H         1.0       0.23717567060131373           0.7853904962775976 0.33398252812907053          1.0000   
         H         H         1.0       0.20429832251726895           0.8156998538683702 0.34295936484661105          1.0000   
         H         H         1.0       0.20548731605687645           0.8609203836516922 0.3415045556960099 1.0000   
         H         H         1.0       0.2166436906689859  0.8698043895667918  0.42738840224714053          1.0000   
         H         H         1.0       0.21386187039397372           0.8244630292563834 0.42948581533076097          1.0000   
         C         C         1.0       0.34723180543346777           0.5906135259811307 0.13016872511295652          1.0000   
         C         C         1.0       0.35092336329649615           0.6131899504153595 0.14531874622174507          1.0000   
         C         C         1.0       0.33250667055189687           0.6089935741500677 0.16707317706122538          1.0000   
         C         C         1.0       0.30719454495360965           0.5835060632584518 0.16947553152644035          1.0000   
         C         C         1.0       0.3049445587909187  0.560106087134551   0.15663500057322055          1.0000   
         C         C         1.0       0.32498538592248777           0.5637262798806976 0.13712409312976115          1.0000   
         H         H         1.0       0.37005285100503166           0.6350900055365652 0.141001003340179  1.0000   
         H         H         1.0       0.33664952724149805           0.6260772287257383 0.18038004912879527          1.0000   
         H         H         1.0       0.28488012001545643           0.5388730753482763 0.1599821962962985 1.0000   
         H         H         1.0       0.3191066865140379  0.5460470375307056  0.12425147101457665          1.0000   
         C         C         1.0       0.2444702524846051  0.5572453175261523  0.14703353132265704          1.0000   
         C         C         1.0       0.2496423162055791  0.5555586524822779  0.1746198666843558 1.0000   
         C         C         1.0       0.22605404285115022           0.5382525081412737 0.19123797972910628          1.0000   
         C         C         1.0       0.19905479143611535           0.5225458803546594 0.18023226022005906          1.0000   
         C         C         1.0       0.19414509470893054           0.5244494897530648 0.1525980155930212 1.0000   
         C         C         1.0       0.21803110824901042           0.5412208188146376 0.13481771951878754          1.0000   
         C         C         1.0       0.28085732469567354           0.5782543369995988 0.18774331980161085          1.0000   
         C         C         1.0       0.2747330599955672  0.6040828074457459  0.18934295850832528          1.0000   
         C         C         1.0       0.25626818902341664           0.6039746620474905 0.21015744823142207          1.0000   
         C         C         1.0       0.2510998140176985  0.625384112015514   0.2114998180364677 1.0000   
         C         C         1.0       0.26517839325154413           0.6485739951973631 0.1944297232209226 1.0000   
         C         C         1.0       0.28326549878658236           0.6497601299346651 0.17377596671555745          1.0000   
         C         C         1.0       0.2881662656747969  0.6277729485260177  0.17088736724339368          1.0000   
         C         C         1.0       0.27419595666792007           0.5465455286539324 0.2276657450253364 1.0000   
         C         C         1.0       0.27058067841202266           0.5409581681955266 0.2552864365282095 1.0000   
         C         C         1.0       0.28417342143075824           0.5630281353005056 0.2735730219892211 1.0000   
         C         C         1.0       0.30335917089650316           0.5902997074545497 0.2632421814507899 1.0000   
         C         C         1.0       0.3079239962785246  0.5957804812218171  0.2352210827725705 1.0000   
         C         C         1.0       0.289183888156051   0.574419853439807   0.21741575538328314          1.0000   
         C         C         1.0       0.276426145840364   0.5590800269695055  0.30551559853997795          1.0000   
         C         C         1.0       0.18994890523658112           0.5421718442765188 0.2920811106457933 1.0000   
         C         C         1.0       0.19346737031573535           0.521613212390938  0.304066613117491  1.0000   
         C         C         1.0       0.22119689483202684           0.5272444625384978 0.30839548242207143          1.0000   
         C         C         1.0       0.24532044199273148           0.555250621420594  0.305175910445765  1.0000   
         C         C         1.0       0.24162702223209834           0.576606330671795  0.295901928337427  1.0000   
         C         C         1.0       0.21440760268872075           0.5698754650067989 0.2904265155097192 1.0000   
         C         C         1.0       0.29949772560896637           0.5845014405496997 0.32362150778699356          1.0000   
         C         C         1.0       0.3277027143302822  0.5918399567203029  0.3216635468414417 1.0000   
         C         C         1.0       0.34675629276732595           0.6109535825300088 0.33964453864458194          1.0000   
         C         C         1.0       0.3393298782311186  0.6229881063726337  0.3607571153910379 1.0000   
         C         C         1.0       0.3122391112280697  0.6182451197132146  0.36063836282772677          1.0000   
         C         C         1.0       0.2919779986288266  0.5997252494053035  0.3416312981306521 1.0000   
         C         C         1.0       0.2624125225579173  0.5240380643763656  0.3476613438649178 1.0000   
         C         C         1.0       0.2566095560912459  0.49942824589305307           0.35851682931615836          1.0000   
         C         C         1.0       0.2679411054633457  0.4854130697684242  0.34674777576365234          1.0000   
         C         C         1.0       0.2854910185783698  0.4957495040476153  0.32264664601188736          1.0000   
         C         C         1.0       0.2875890066952838  0.5190903541157496  0.31001060300987404          1.0000   
         C         C         1.0       0.27567473750721666           0.5330174087294156 0.3218926217208899 1.0000   
         H         H         1.0       0.2631282050893618  0.5730914806113077  0.1348635431517301 1.0000   
         H         H         1.0       0.22541015418740903           0.5376569742721412 0.2135064435911535 1.0000   
         H         H         1.0       0.18181504182289973           0.5098976200054024 0.19350544331340136          1.0000   
         H         H         1.0       0.21371708068252512           0.5446537861786236 0.11492604157097518          1.0000   
         H         H         1.0       0.2457549310073047  0.5883643785770211  0.22682124351947777          1.0000   
         H         H         1.0       0.23586691253745704           0.6247047186013683 0.22645783003709782          1.0000   
         H         H         1.0       0.2921874014243206  0.6676411107181821  0.158761721479476  1.0000   
         H         H         1.0       0.3002137651799391  0.6273909026130796  0.15337427210816393          1.0000   
         H         H         1.0       0.2618084332766222  0.5286706039527421  0.2149182228116859 1.0000   
         H         H         1.0       0.2567744437387789  0.5192346554821513  0.2632348334213105 1.0000   
         H         H         1.0       0.31479316949387237           0.6086167291212919 0.2768907035541113 1.0000   
         H         H         1.0       0.32082969667946665           0.6176796290488492 0.2281059116300616 1.0000   
         H         H         1.0       0.17438375746442705           0.5003372637140087 0.30546737399743623          1.0000   
         H         H         1.0       0.21947244117294604           0.5090740302597273 0.31884143455223296          1.0000   
         H         H         1.0       0.25978558170969596           0.5969929025934416 0.29204514880879734          1.0000   
         H         H         1.0       0.20966211768671147           0.5855751351826913 0.2832508793986872 1.0000   
         H         H         1.0       0.3345926488145383  0.5807392832489522  0.30846254131253653          1.0000   
         H         H         1.0       0.3680809847437189  0.6144405191117941  0.3371888425784496 1.0000   
         H         H         1.0       0.30705146540057804           0.6294414758780864 0.375263991055003  1.0000   
         H         H         1.0       0.27129239539648164           0.5987623931987296 0.3417187760868338 1.0000   
         H         H         1.0       0.2519611345117384  0.5342357704894308  0.3568278729185072 1.0000   
         H         H         1.0       0.24493919664120314           0.49268126868829476          0.37771517430107143          1.0000   
         H         H         1.0       0.29683541178639444           0.4867261921741513 0.31180058019710594          1.0000   
         H         H         1.0       0.2967748396934531  0.5253626981699686  0.2890148094658959 1.0000   
         C         C         1.0       0.32325520421729975           0.5898997921355005 0.4203124976730956 1.0000   
         C         C         1.0       0.3193025208367024  0.5983991907808907  0.44556442242571676          1.0000   
         C         C         1.0       0.29190753727725494           0.5926484673539097 0.4533631195045771 1.0000   
         C         C         1.0       0.26771290613000104           0.5756869684066256 0.4373242524836623 1.0000   
         C         C         1.0       0.27179783623215403           0.5639548732004335 0.4133001760215546 1.0000   
         C         C         1.0       0.2990875431853219  0.569588164355727   0.40612696852061003          1.0000   
         H         H         1.0       0.3357671553275331  0.6122241971759838  0.45984164748082557          1.0000   
         H         H         1.0       0.28867656986510637           0.6008503463462355 0.47124506563393603          1.0000   
         H         H         1.0       0.2535270049035434  0.5530393449936157  0.3996168281846784 1.0000   
         H         H         1.0       0.30192172930681943           0.5606821274628365 0.3885088209390702 1.0000   
         C         C         1.0       0.2288128753848726  0.5873229940672161  0.3984010028315269 1.0000   
         C         C         1.0       0.2181760088886647  0.5712738666514735  0.422261643417903  1.0000   
         C         C         1.0       0.18844474395262925           0.5572940029470193 0.42633772801712266          1.0000   
         C         C         1.0       0.17057088091040917           0.5577780512282843 0.4075557059440388 1.0000   
         C         C         1.0       0.1821808183426609  0.573180479566684   0.3828545195477072 1.0000   
         C         C         1.0       0.2114579989210893  0.5889215962874358  0.3795981194303247 1.0000   
         C         C         1.0       0.2362073884735641  0.5682770094018557  0.44501818227532947          1.0000   
         C         C         1.0       0.23566075493637353           0.5904537279629373 0.465629256825366  1.0000   
         C         C         1.0       0.21548271563340682           0.5828437145740756 0.48681879013097956          1.0000   
         C         C         1.0       0.21618146101871535           0.6019579117332376 0.5037171838242797 1.0000   
         C         C         1.0       0.2375463300531224  0.6306020774716464  0.49950559467360944          1.0000   
         C         C         1.0       0.25736623108903894           0.6400525396032167 0.4775770870722017 1.0000   
         C         C         1.0       0.2548427067790789  0.619209338036124   0.4610900818441425 1.0000   
         C         C         1.0       0.20592467095934736           0.5134627348946098 0.4383367560968612 1.0000   
         C         C         1.0       0.19603887404561465           0.48571984802384066          0.447116030586501  1.0000   
         C         C         1.0       0.20436232035794896           0.48253128431508335          0.4729950885621169 1.0000   
         C         C         1.0       0.22036757072304994           0.5051704340380428 0.49009467463843026          1.0000   
         C         C         1.0       0.22824792987561388           0.5315803385780552 0.48122176456770366          1.0000   
         C         C         1.0       0.22227597645662692           0.5367477539741237 0.45504446483231875          1.0000   
         C         C         1.0       0.19172689376213198           0.45092963121791224          0.4853041614612779 1.0000   
         C         C         1.0       0.1062499961634474  0.43798113182720333           0.5003469780152933 1.0000   
         C         C         1.0       0.11068561808767007           0.4242107541179586 0.47912867799938574          1.0000   
         C         C         1.0       0.1377172129738342  0.42898392610642055           0.4739877614954554 1.0000   
         C         C         1.0       0.1603638540974051  0.44436829816470225           0.4919120399177031 1.0000   
         C         C         1.0       0.15585420944501693           0.45737564256088414          0.5143937328252735 1.0000   
         C         C         1.0       0.1287994783210497  0.45407838302059067           0.5177607718643854 1.0000   
         C         C         1.0       0.21036984138071846           0.4486220274719009 0.5082250458082851 1.0000   
         C         C         1.0       0.24057010477508312           0.4633225761756569 0.5088916522232363 1.0000   
         C         C         1.0       0.319532449674091   0.5662553176293332  0.05036810301706551          1.0000   
         C         C         1.0       0.32155491939070047           0.5854063279549234 0.06986207819861164          1.0000   
         C         C         1.0       0.2971538211134932  0.5840211939716244  0.08023828204776545          1.0000   
         C         C         1.0       0.2710109130668321  0.5652375384768139  0.06977848868306291          1.0000   
         C         C         1.0       0.17896849059661238           0.4026498742586087 0.463767934018199  1.0000   
         C         C         1.0       0.18489679654724817           0.38728521694632306          0.4470766431687753 1.0000   
         C         C         1.0       0.20722008440830075           0.40007891125327455          0.42728203481763005          1.0000   
         C         C         1.0       0.22440478919251702           0.4293021389894778 0.4258332881491276 1.0000   
         C         C         1.0       0.2172966746633618  0.4447694621110606  0.44230363696581737          1.0000   
         C         C         1.0       0.19525294074343463           0.43212019111157624          0.46305125661391267          1.0000   
         H         H         1.0       0.251262223607569   0.602152902290429   0.39514508933688436          1.0000   
         H         H         1.0       0.17848042211681653           0.5451661813866233 0.44504419405610246          1.0000   
         H         H         1.0       0.1473280214616283  0.545632854825425   0.409888691783393  1.0000   
         H         H         1.0       0.22236606526217337           0.6022295478195959 0.36118334853643913          1.0000   
         H         H         1.0       0.1974025315250677  0.5614666126203116  0.48987356100382523          1.0000   
         H         H         1.0       0.2036369193211034  0.5972349704305545  0.5224244916911673 1.0000   
         H         H         1.0       0.2741007349175583  0.6622571449676433  0.4745748604151936 1.0000   
         H         H         1.0       0.2684464721484291  0.6260176788974953  0.4428738649206303 1.0000   
         H         H         1.0       0.2034474890397417  0.516558730154742   0.4161975869943516 1.0000   
         H         H         1.0       0.18224846427500788           0.46932284019635867          0.4343231309297465 1.0000   
         H         H         1.0       0.22394570982109802           0.5029605215456487 0.5112237817596174 1.0000   
         H         H         1.0       0.2418015274255818  0.5493392386848788  0.49429593979957764          1.0000   
         H         H         1.0       0.09497002780932436           0.40959173982307595          0.46408208520891864          1.0000   
         H         H         1.0       0.1397350060260297  0.4195713449135118  0.45488538278810037          1.0000   
         H         H         1.0       0.17404217835214802           0.46829451489597834          0.5270961042070397 1.0000   
         H         H         1.0       0.2064235814364764  0.5885392747208055  0.027100640982749672         1.0000   
         H         H         1.0       0.2529587197735616  0.47941692293302735           0.49458931850240395          1.0000   
         H         H         1.0       0.3380065411761564  0.5694264481566427  0.04002176209432363          1.0000   
         H         H         1.0       0.29929452542398616           0.5992922931115106 0.09685072289165991          1.0000   
         H         H         1.0       0.252747767402789   0.5659244890339117  0.07797465298200175          1.0000   
         H         H         1.0       0.16025266129990373           0.3911922937629009 0.47834871061011264          1.0000   
         H         H         1.0       0.17222817402635696           0.3640402946938774 0.4507701246821384 1.0000   
         H         H         1.0       0.24538710279865425           0.44109336186965353          0.41383536771010165          1.0000   
         H         H         1.0       0.23090062401990982           0.4671736082310983 0.43639032890432794          1.0000   
         C         C         1.0       0.35675657710219616           0.6325168961308663 0.3882465340441027 1.0000   
         C         C         1.0       0.3525190034460356  0.6073682451524597  0.40560372809958894          1.0000   
         H         H         1.0       0.3792293086315346  0.6461549581684971  0.38255364841973144          1.0000   
         H         H         1.0       0.35165733217706424           0.6469655518622676 0.4002608047621129 1.0000   
         H         H         1.0       0.3586106734025406  0.5966770990737224  0.3907643165404911 1.0000   
         H         H         1.0       0.36932200442177615           0.6160912715071807 0.42181470695429624          1.0000   
         C         C         1.0       0.36280235610086914           0.5959316461786006 0.10303892436505756          1.0000   
         C         C         1.0       0.35059149442907095           0.6060218028049935 0.08038431690119503          1.0000   
         H         H         1.0       0.36208749193527084           0.5759273060870659 0.09499623142705639          1.0000   
         H         H         1.0       0.38622126703229315           0.6128666301131858 0.10375588366028818          1.0000   
         H         H         1.0       0.36686470349249006           0.6161858247263957 0.06376876163077978          1.0000   
         H         H         1.0       0.3502700850239207  0.6242230005881612  0.09021926588263472          1.0000   
         C         C         1.0       0.2441146550762901  0.6536746168023422  0.5238042934525609 1.0000   
         C         C         1.0       0.2192747259379412  0.6545921797195451  0.5363932318732784 1.0000   
         H         H         1.0       0.2609993292774344  0.675198755373108   0.5176509546645436 1.0000   
         H         H         1.0       0.2545418773701528  0.6485672828001674  0.539140390709278  1.0000   
         H         H         1.0       0.22336315455050387           0.6579400631522135 0.5592541213273278 1.0000   
         H         H         1.0       0.19775463450498465           0.6334370656930851 0.5355008422589245 1.0000   
         C         C         1.0       0.3405804580483276  0.8742514474606047  0.3224163537107644 1.0000   
         C         C         1.0       0.3341685884079547  0.8544495740146848  0.34836964791204966          1.0000   
         H         H         1.0       0.3302450513521905  0.886700145935087   0.3258668475526667 1.0000   
         H         H         1.0       0.3648222709864044  0.8896137779840292  0.3223651705134036 1.0000   
         H         H         1.0       0.34772182361887666           0.8659532425088466 0.36566165527028427          1.0000   
         H         H         1.0       0.34319840100920923           0.8406241672104003 0.3438044498879754 1.0000   
         C         C         1.0       0.23893846755180778           0.8558125697138577 0.5216188359682532 1.0000   
         C         C         1.0       0.3576440270608814  0.8377904943007104  0.03308016068349917          1.0000   
         H         H         1.0       0.2226476117896236  0.8625508415223642  0.5226759291482219 1.0000   
         H         H         1.0       0.2514903166075119  0.8685849386438109  0.5034389123553159 1.0000   
         H         H         1.0       0.3796174141529663  0.84895474543489    0.04027445522424858          1.0000   
         H         H         1.0       0.35083066522900286           0.8153900573936435 0.03224091219390779          1.0000   
         C         C         1.0       0.29167627262445944           0.7031597383725695 0.20507663404487944          1.0000   
         C         C         1.0       0.2638236661122114  0.6761004212864182  0.1948557915780318 1.0000   
         H         H         1.0       0.3114692688452357  0.7105321009293771  0.19236877293690505          1.0000   
         H         H         1.0       0.2961580114453175  0.6971537085345325  0.22485308919438754          1.0000   
         H         H         1.0       0.2565780774733044  0.6809769460135197  0.17588332069006998          1.0000   
         H         H         1.0       0.24666160544163207           0.6719941458197468 0.20918412140363069          1.0000   
         C         C         1.0       0.176165263508097   0.778376932316251   0.26413037823871466          1.0000   
         C         C         1.0       0.1667434227176196  0.7997794949813939  0.2690114571789895 1.0000   
         H         H         1.0       0.16256854960991    0.7620785312452488  0.24820106740867154          1.0000   
         H         H         1.0       0.17004334109488073           0.7653954926248041 0.2833394466610975 1.0000   
         H         H         1.0       0.18058140665813266           0.8118939095508076 0.2873956170087842 1.0000   
         H         H         1.0       0.17469149766075273           0.8157139406594766 0.2527524658308326 1.0000   
         C         C         1.0       0.09537646586836125           0.661305119643985  0.35500086341037734          1.0000   
         C         C         1.0       0.1150235364788727  0.6826534195405496  0.33380237791193107          1.0000   
         H         H         1.0       0.10886733631425694           0.6635409725837527 0.3732480102657513 1.0000   
         H         H         1.0       0.08620303143466403           0.6383817208036487 0.3497034042423327 1.0000   
         H         H         1.0       0.10060193082278678           0.6855373622842558 0.3197399772097761 1.0000   
         H         H         1.0       0.12348392932136318           0.672158637542258  0.3209128439177025 1.0000   
         C         C         1.0       0.874313415641442   0.581925476442273   0.398099075469901  1.0000   
         C         C         1.0       0.8573803631159457  0.5871579201071123  0.42157893432037535          1.0000   
         H         H         1.0       0.8624314636027867  0.5789651790036359  0.37892206486140967          1.0000   
         H         H         1.0       0.8701907139280052  0.56054947439945    0.4016887141876778 1.0000   
         H         H         1.0       0.8521691329359814  0.6041983556932415  0.4149963341547278 1.0000   
         H         H         1.0       0.8371169693846965  0.5681594986968554  0.42618297674767847          1.0000   
         C         C         1.0       0.9619455002448174  0.7461902002814295  0.22196492651376568          1.0000   
         C         C         1.0       0.9739301840350639  0.7773078627100398  0.20992293922618005          1.0000   
         H         H         1.0       0.9484856655960154  0.729977622521656   0.20782227954161187          1.0000   
         H         H         1.0       0.9468046306525315  0.7441491099441261  0.2397703425829051 1.0000   
         H         H         1.0       0.9518528431187193  0.7765635820247377  0.20848830919350006          1.0000   
         H         H         1.0       0.98960855593583    0.7954633887468924  0.2243104218737731 1.0000   
         C         C         1.0       0.04915927493290164           0.6527033223550849 0.4801191979305475 1.0000   
         C         C         1.0       0.06465299504098386           0.643685220595608  0.5003208166165045 1.0000   
         H         H         1.0       0.05203178493763265           0.6462352098590953 0.4596348527106817 1.0000   
         H         H         1.0       0.06235732627132719           0.677171987980926  0.4806236652871002 1.0000   
         H         H         1.0       0.05826335793653896           0.6428971491283675 0.521037111475318  1.0000   
         H         H         1.0       0.05623088311286497           0.6200801662254549 0.497460361871837  1.0000   
         C         C         1.0       0.16554059314467556           0.8481552009021832 0.11081750298815543          1.0000   
         C         C         1.0       0.1691880996368576  0.8243646634205457  0.09888373783901523          1.0000   
         H         H         1.0       0.17816175797709247           0.868345364228678  0.09849081733888423          1.0000   
         H         H         1.0       0.17196284207519352           0.8543540122943861 0.1312053273112818 1.0000   
         H         H         1.0       0.1623322565249894  0.8197950046323517  0.0770605099444459 1.0000   
         H         H         1.0       0.15586326646751558           0.8044042379773231 0.10808747407478696          1.0000   
         C         C         1.0       0.13869292138796618           0.5768810141433116 0.3665665759475044 1.0000   
         C         C         1.0       0.16125338053910782           0.5692272343521559 0.3601786818011765 1.0000   
         H         H         1.0       0.1298623048410039  0.5681388900191386  0.38814805348051884          1.0000   
         H         H         1.0       0.1501617702463381  0.6006008149317249  0.37204165052611626          1.0000   
         H         H         1.0       0.17246308852799222           0.5794773951998251 0.33962193755113107          1.0000   
         H         H         1.0       0.1494404591897135  0.5453805635981068  0.3548674177870592 1.0000   
         C         C         1.0       0.15049380482118294           0.5120207639843725 0.2572960590724369 1.0000   
         C         C         1.0       0.1598021037211398  0.5327831927985401  0.28212977376323434          1.0000   
         H         H         1.0       0.1648529398586498  0.5040296236038576  0.25584257089457296          1.0000   
         H         H         1.0       0.1519527876389124  0.5228185494373594  0.23772190053659623          1.0000   
         H         H         1.0       0.14474172605001848           0.5234847154654888 0.2985049932580037 1.0000   
         H         H         1.0       0.1575749705278149  0.5502733264512615  0.2751817734863903 1.0000   
         C         C         1.0       0.03268198702310521           0.6013562932218689 0.22641312964271895          1.0000   
         C         C         1.0       0.059420176898016264          0.6309770473794339 0.22305882107443037          1.0000   
         H         H         1.0       0.03187936386253528           0.5919419302196239 0.20657539303493966          1.0000   
         H         H         1.0       0.01168518951063087           0.6002422304930566 0.22973238987632422          1.0000   
         H         H         1.0       0.06271317560352285           0.6349404979727479 0.20000889437964003          1.0000   
         H         H         1.0       0.07819248903066867           0.6323261380266328 0.2322277451444432 1.0000   
         C         C         1.0       0.16368953681207796           0.5127836266837704 0.14063968674915733          1.0000   
         C         C         1.0       0.15108541217583635           0.5295466020306226 0.1501130301198724 1.0000   
         H         H         1.0       0.16489167420951203           0.5119767206228573 0.11836529199751494          1.0000   
         H         H         1.0       0.14919653660533    0.49176969823486305           0.15034114396248224          1.0000   
         H         H         1.0       0.15518100643422822           0.5316706635563503 0.17240083463245243          1.0000   
         H         H         1.0       0.16384805052595822           0.5519766731933364 0.1438946853818001 1.0000   
         C         C         1.0       0.06303068141166869           0.4395290053880804 0.4842559617053795 1.0000   
         C         C         1.0       0.07526747374434788           0.4307431413980538 0.5076578022809192 1.0000   
         H         H         1.0       0.07466737245627826           0.44406974624528495          0.4640690150221126 1.0000   
         H         H         1.0       0.06821213822536705           0.4609833191831949 0.490545690349477  1.0000   
         H         H         1.0       0.07209716832157478           0.44055394375260376          0.5276168705317514 1.0000   
         H         H         1.0       0.06350228331228976           0.4077394906301934 0.5114164636659919 1.0000   
         C         C         1.0       0.9105053967208117  0.4231355516659135  0.3841311047163762 1.0000   
         C         C         1.0       0.920477859981137   0.43130549328282236           0.3537068660883553 1.0000   
         H         H         1.0       0.9198473014610286  0.4418464080471417  0.3983826753376795 1.0000   
         H         H         1.0       0.8866525465856148  0.41665831653936775           0.385211745689064  1.0000   
         H         H         1.0       0.9022907777798809  0.4291881249764529  0.3430538461610134 1.0000   
         H         H         1.0       0.9209558809657493  0.41389755813650625           0.34285772436822237          1.0000   
         C         C         1.0       0.9545619945309534  0.35962086331944826           0.15790280817616023          1.0000   
         C         C         1.0       0.9655260741093371  0.34552076863369763           0.17636567883083362          1.0000   
         H         H         1.0       0.9461957547049107  0.3466626803003831  0.1388543946858042 1.0000   
         H         H         1.0       0.935574469550619   0.356149011364824   0.16882498808412347          1.0000   
         H         H         1.0       0.979215952707775   0.3413435185504071  0.16247366559945198          1.0000   
         H         H         1.0       0.9494560863251436  0.32569432240794655           0.18243752432765026          1.0000   
         C         C         1.0       0.015294262316085439          0.5747269913661442 0.1296295278070729 1.0000   
         C         C         1.0       0.9879695269418057  0.5736173297257845  0.11962667553610414          1.0000   
         H         H         1.0       0.021597171415199234          0.5821469864385164 0.150472593328476  1.0000   
         H         H         1.0       0.03490435703275652           0.5923570755203564 0.11764138686236413          1.0000   
         H         H         1.0       0.9797644579349064  0.5573005005894764  0.10264445047709747          1.0000   
         H         H         1.0       0.970166807817213   0.5619081686270302  0.13536965764662212          1.0000   
         C         C         1.0       0.6471983850023308  0.8084418677780417  0.45501766013816375          1.0000   
         C         C         1.0       0.6471682930070446  0.806381954550002   0.4865642382306692 1.0000   
         H         H         1.0       0.638230269710118   0.8217031061106457  0.4488538880151742 1.0000   
         H         H         1.0       0.6300308823856574  0.7866235967960855  0.44847705703478336          1.0000   
         H         H         1.0       0.6335421285406515  0.813654155634567   0.4944752422468991 1.0000   
         H         H         1.0       0.6687738593849953  0.8202940513897882  0.49381231947271215          1.0000   
         C         C         1.0       0.7746526753026395  0.9415697326952175  0.21747852528916395          1.0000   
         C         C         1.0       0.7448365751810763  0.9311514532382361  0.22999289719987   1.0000   
         H         H         1.0       0.7876339572536117  0.9447505501038838  0.23575877814550972          1.0000   
         H         H         1.0       0.7880815084381968  0.9643292361332799  0.21349770856495512          1.0000   
         H         H         1.0       0.7301679947780852  0.9307168373575574  0.21500750810243627          1.0000   
         H         H         1.0       0.7461258903833473  0.9463949456101566  0.24571099975579752          1.0000   
         C         C         1.0       0.23004391663049584           0.36683138374870955          0.4343747251870619 1.0000   
         C         C         1.0       0.21592102282733544           0.379813710996885  0.4163872528881433 1.0000   
         H         H         1.0       0.22998771104580934           0.3488405012112466 0.4243731001731488 1.0000   
         H         H         1.0       0.2156972266188602  0.35605345218145573           0.45363640393948224          1.0000   
         H         H         1.0       0.23016514198843993           0.389871801639162  0.3991704854918323 1.0000   
         H         H         1.0       0.1980289651251574  0.362894272058497   0.4059834338672616 1.0000   
         C         C         1.0       0.5563506373429967  0.6711188683817936  0.09445580588956536          1.0000   
         C         C         1.0       0.557629596108542   0.699312313380404   0.09178162946659543          1.0000   
         H         H         1.0       0.5746412549265978  0.6740254581678005  0.10701613498466651          1.0000   
         H         H         1.0       0.5593361162981794  0.6636114932261362  0.07361670846924916          1.0000   
         H         H         1.0       0.5486619385267136  0.7051863342509761  0.10977841020730864          1.0000   
         H         H         1.0       0.5422516945603723  0.6962484471868102  0.07539511848484232          1.0000   
         C         C         1.0       0.2845752474557751  0.45600320031896796           0.3751755743098539 1.0000   
         C         C         1.0       0.2606173969848428  0.45763436797363216           0.3588664054446461 1.0000   
         H         H         1.0       0.2883366293244955  0.46856523798322486           0.3931538643377047 1.0000   
         H         H         1.0       0.2758937109908241  0.43363714944700543           0.37888015992849383          1.0000   
         H         H         1.0       0.24242384274193574           0.449030790704961  0.37094308732550907          1.0000   
         H         H         1.0       0.251065592911117   0.43931902544943263           0.34334605425212533          1.0000   
         C         C         1.0       0.37706303558912047           0.5594990277510573 0.42864321382518106          1.0000   
         C         C         1.0       0.40606685313512275           0.5842062985546241 0.4411234534474461 1.0000   
         H         H         1.0       0.35884292821335084           0.5625714514292072 0.4292634748470583 1.0000   
         H         H         1.0       0.38151792802656753           0.5579005086424125 0.4061466439912892 1.0000   
         H         H         1.0       0.40996719160502737           0.5835446121476053 0.4636023892301721 1.0000   
         H         H         1.0       0.40398746468848057           0.6035121269986768 0.43964636685850883          1.0000   
         C         C         1.0       0.34495052474422294           0.5519642259788017 0.22231900950707864          1.0000   
         C         C         1.0       0.3718306828682368  0.5811371959171188  0.21443142725728465          1.0000   
         H         H         1.0       0.32787985887290466           0.5547689580948683 0.23042880606832347          1.0000   
         H         H         1.0       0.3365606713612021  0.5390740977473354  0.2034023027962814 1.0000   
         H         H         1.0       0.38237572330662317           0.5911453353922577 0.23389563644418315          1.0000   
         H         H         1.0       0.3646402431912958  0.5946411973294572  0.20559076364403575          1.0000   
         C         C         1.0       0.5884574283619806  0.7033404893473089  0.31207607828352896          1.0000   
         C         C         1.0       0.5816265806300277  0.7240974163867714  0.2968361498157329 1.0000   
         H         H         1.0       0.6045419457020457  0.7170876029682374  0.3279409189553068 1.0000   
         H         H         1.0       0.6006921247913493  0.6978871204627253  0.3000821681676192 1.0000   
         H         H         1.0       0.5699042328833962  0.7280609777893821  0.31136552533197537          1.0000   
         H         H         1.0       0.5690790541265794  0.7177091291139003  0.27669766013237845          1.0000   
         C         C         1.0       0.542645901368106   0.5114749252012916  0.3633108820169094 1.0000   
         C         C         1.0       0.5650038707500786  0.5433513876978592  0.37074681752484545          1.0000   
         H         H         1.0       0.5392435091048754  0.5124906327193361  0.34154293155132115          1.0000   
         H         H         1.0       0.5215998907280815  0.5027068487991482  0.37348745651245796          1.0000   
         H         H         1.0       0.5748382436443215  0.5470995093833075  0.39054831740432255          1.0000   
         H         H         1.0       0.5834691949793359  0.5489869146921919  0.3562000791768055 1.0000   
         C         C         1.0       0.43630336706812783           0.43413461771046163          0.49490572785675624          1.0000   
         C         C         1.0       0.43955870424081106           0.4240731082405618 0.5241616025521112 1.0000   
         H         H         1.0       0.45711404840432523           0.45228170042797605          0.4920840537833148 1.0000   
         H         H         1.0       0.43581977360709956           0.42007796796955543          0.47978318894328753          1.0000   
         H         H         1.0       0.4383100217526925  0.4286618489126023  0.08027989676302127          1.0000   
         H         H         1.0       0.4547524157017119  0.4589770089577074  0.059162028755058646         1.0000   
         C         C         1.0       0.5255162879076455  0.5332983932214673  0.17754187260025925          1.0000   
         C         C         1.0       0.5578708999051524  0.5572121586609015  0.17229038828864446          1.0000   
         H         H         1.0       0.5241776899332737  0.5289263474385014  0.2001727298112902 1.0000   
         H         H         1.0       0.5197613045447795  0.5134977234416632  0.16900520232007768          1.0000   
         H         H         1.0       0.5648845170408846  0.5697237943934804  0.15388679065046199          1.0000   
         H         H         1.0       0.5633851192384909  0.5738981886308402  0.18760689513099932          1.0000   
         C         C         1.0       0.4384589446553469  0.4427882971982761  0.26511863674668923          1.0000   
         C         C         1.0       0.46048530824078787           0.44125015228209513          0.2839283634037031 1.0000   
         H         H         1.0       0.4487241359717784  0.44906207481040034           0.24372794102710915          1.0000   
         H         H         1.0       0.41895198937986694           0.420511681826279  0.26090554363952084          1.0000   
         H         H         1.0       0.4535971068828409  0.4360196531419787  0.3044946116830053 1.0000   
         H         H         1.0       0.4794025686720717  0.4637504900222184  0.283930567331266  1.0000   
         C         C         1.0       0.5921678140661739  0.3963196442201936  0.08734995294631373          1.0000   
         C         C         1.0       0.5868475282593515  0.39536435193633424           0.11946390556414703          1.0000   
         H         H         1.0       0.5948572986779033  0.37918078057148646           0.08162160374209915          1.0000   
         H         H         1.0       0.6126259934627587  0.4156576300811895  0.08305049621448148          1.0000   
         H         H         1.0       0.593605547281748   0.38286209015159345           0.13181929723520086          1.0000   
         H         H         1.0       0.5633257803482891  0.3831000323377443  0.12351842937333825          1.0000   
         C         C         1.0       0.5274988737550936  0.3120867726902224  0.32183489181970326          1.0000   
         C         C         1.0       0.5156200604179688  0.31167235072865257           0.3508084981822727 1.0000   
         H         H         1.0       0.5204002041826055  0.29037800397944047           0.31580405384807253          1.0000   
         H         H         1.0       0.5514473187897114  0.32178207666426506           0.32318037388021126          1.0000   
         H         H         1.0       0.519725451186831   0.29798116495612564           0.3637339550068667 1.0000   
         H         H         1.0       0.491207644604091   0.30020956532257237           0.3526400911554805 1.0000   
         C         C         1.0       0.9815072006955186  0.7362013716955013  0.49908629974762125          1.0000   
         C         C         1.0       0.00509507955351074           0.743188782054202  0.4776881158435174 1.0000   
         H         H         1.0       0.9905613707786532  0.7529408346292897  0.5164619419716925 1.0000   
         H         H         1.0       0.9738585132262971  0.7149261262747661  0.5079429351937335 1.0000   
         H         H         1.0       0.010787657979465903          0.7634229600600329 0.4665370141204825 1.0000   
         H         H         1.0       0.026537518360620682          0.7511578514629333 0.4890080069439884 1.0000   
         C         C         1.0       0.6992385492594168  0.6614525541648509  0.514753104910961  1.0000   
         C         C         1.0       0.6664982631338129  0.6383190917701294  0.515297559373359  1.0000   
         H         H         1.0       0.702759487147319   0.6819541367297823  0.5049350931182122 1.0000   
         H         H         1.0       0.7071602857416014  0.6669873397832657  0.5367536701348539 1.0000   
         H         H         1.0       0.662928028018309   0.6218385688455313  0.5320357769561612 1.0000   
         H         H         1.0       0.6611063940365011  0.6278562917533922  0.4950710591793774 1.0000   
         C         C         1.0       0.854200228852283   0.8070559448576674  0.41280841255161804          1.0000   
         C         C         1.0       0.8216984220006366  0.7892630930289917  0.42143224085730907          1.0000   
         H         H         1.0       0.8679070363677814  0.8261615152267822  0.425234265337955  1.0000   
         H         H         1.0       0.8567715345735865  0.812899903347971   0.3903322629839382 1.0000   
         H         H         1.0       0.8108989741733509  0.7685491733263964  0.40974359307144503          1.0000   
         H         H         1.0       0.8192580049288819  0.7830663995967939  0.44364124297520563          1.0000   
         C         C         1.0       0.6935070890348668  0.5453013280141263  0.37979546755981597          1.0000   
         C         C         1.0       0.694565245762456   0.518486495316709   0.38058357450820757          1.0000   
         H         H         1.0       0.6713104926141122  0.5395646668749767  0.3824398405893635 1.0000   
         H         H         1.0       0.703275002174823   0.5565454540125548  0.3607602309578019 1.0000   
         H         H         1.0       0.7106294068681509  0.5198431101438626  0.39454169506703307          1.0000   
         H         H         1.0       0.7029778888964338  0.5160999897774157  0.35924941797336024          1.0000   
         C         C         1.0       0.9699305912940065  0.8212792898623191  0.04441223150687263          1.0000   
         C         C         1.0       0.9513469373509357  0.8232935660336004  0.06812492160260622          1.0000   
         H         H         1.0       0.9542878598205391  0.8059596267318752  0.029925823036236036         1.0000   
         H         H         1.0       0.9814414898283237  0.8412432214679229  0.030831444535392105         1.0000   
         H         H         1.0       0.9414909473065459  0.8351238240573757  0.06206138045679033          1.0000   
         H         H         1.0       0.965670623016793   0.8353479112050886  0.08657632980318868          1.0000   
         C         C         1.0       0.7630158182910841  0.7666931540243703  0.23784473462458036          1.0000   
         C         C         1.0       0.7805837684601509  0.7654463275284196  0.26109023145407373          1.0000   
         H         H         1.0       0.7483757092976422  0.7460861646928226  0.22827693380229672          1.0000   
         H         H         1.0       0.7763650242408662  0.7791216205599051  0.21964513973293046          1.0000   
         H         H         1.0       0.7957072067025953  0.7863601063284232  0.2695052258839562 1.0000   
         H         H         1.0       0.7651154364884907  0.7548166130678597  0.27872657831922676          1.0000   
         C         C         1.0       0.7628757575776708  0.738505820976545   0.1419232024553787 1.0000   
         C         C         1.0       0.7651287660298933  0.7604384967610721  0.16280767422741735          1.0000   
         H         H         1.0       0.7414892995148489  0.717167726557084   0.14638101980076607          1.0000   
         H         H         1.0       0.7603992209739933  0.7445659987377935  0.1207142066755533 1.0000   
         H         H         1.0       0.785460982516177   0.7720095031227063  0.17284881751719702          1.0000   
         H         H         1.0       0.7505719113491757  0.7509738599893682  0.18032812824709318          1.0000   
         C         C         1.0       0.8115326926057228  0.5819121202728326  0.5462738174862105 1.0000   
         C         C         1.0       0.8527562265461683  0.6392219057696137  0.041909064947235904         1.0000   
         H         H         1.0       0.8960828099165835  0.6731908543358517  0.028040749347552296         1.0000   
         H         H         1.0       0.8132153749884943  0.5646129423082135  0.5379100759319969 1.0000   
         H         H         1.0       0.8585934767894338  0.6237764820235892  0.05052385588092437          1.0000   
         H         H         1.0       0.8322973815156977  0.6233668615205249  0.030853046592621117         1.0000   
         C         C         1.0       0.943837051670961   0.7262185257184478  0.29932638647255566          1.0000   
         C         C         1.0       0.9478999514080029  0.7159848481180779  0.32707258747631074          1.0000   
         H         H         1.0       0.9523981741510954  0.7175609230578871  0.2848531890762633 1.0000   
         H         H         1.0       0.9604175616030513  0.7493664100966001  0.29664623305164395          1.0000   
         H         H         1.0       0.9704629209333039  0.7265372531134348  0.3302935489977526 1.0000   
         H         H         1.0       0.940945110756301   0.6929955989230682  0.3246686077924313 1.0000   
         C         C         1.0       0.7239583217940144  0.5691112917844237  0.24402338159833847          1.0000   
         C         C         1.0       0.724508291225322   0.5936746680102177  0.2588556462357659 1.0000   
         H         H         1.0       0.7320224695690682  0.5590132781653655  0.25911912902929884          1.0000   
         H         H         1.0       0.742329024432189   0.5794072583226859  0.2282312615161281 1.0000   
         H         H         1.0       0.7165248081910659  0.5856181421758729  0.27982162636059554          1.0000   
         H         H         1.0       0.7099349213026694  0.5991594816094152  0.24790484005588245          1.0000   
         C         C         1.0       0.24550699751945    0.922368027270781   0.37982701099705674          1.0000   
         C         C         1.0       0.2153792560244669  0.8960316900947037  0.3847642734792427 1.0000   
         H         H         1.0       0.2514840941817643  0.9242295747552927  0.3575361641078192 1.0000   
         H         H         1.0       0.24630745230573553           0.9417602826454884 0.38363803835711424          1.0000   
         H         H         1.0       0.20032521381260757           0.8943377313245165 0.3688712092116754 1.0000   
         H         H         1.0       0.20812209492392644           0.8995375112720804 0.4056568432737628 1.0000   
         C         C         1.0       0.3381712678899611  0.992758517186756   0.1470826701170083 1.0000   
         C         C         1.0       0.31532142764831655           0.9728315849280456 0.126948469908358  1.0000   
         H         H         1.0       0.32716797956565163           0.9872104402991797 0.16711483795654564          1.0000   
         H         H         1.0       0.34431296047103294           0.014470791683024231         0.14257932299655543          1.0000   
         H         H         1.0       0.2940524516575832  0.9704036700817447  0.1311734205753528 1.0000   
         H         H         1.0       0.32195816912420105           0.9817470819935227 0.10619536427763945          1.0000   
         C         C         1.0       0.33434322634181657           0.8688461121128623 0.5286897085137734 1.0000   
         C         C         1.0       0.38907031030260325           0.9255907241613243 0.9973410546435826 1.0000   
         H         H         1.0       0.3118671236942067  0.8488310133066475  0.5262827069493864 1.0000   
         H         H         1.0       0.3516104493935442  0.8635865996810316  0.5272851074868216 1.0000   
         H         H         1.0       0.3740427394818689  0.9122019205580908  0.016357572846116053         1.0000   
         H         H         1.0       0.3931163545735279  0.9118903610356185  0.9840726469778369 1.0000   
         C         C         1.0       0.4298567862307683  0.9027136301031986  0.22907329654995096          1.0000   
         C         C         1.0       0.4059077737959295  0.8935600177897346  0.25134616776413965          1.0000   
         H         H         1.0       0.42379708889968515           0.8836429468471243 0.21515097331816693          1.0000   
         H         H         1.0       0.450456760399421   0.9079229993194058  0.2376500702124166 1.0000   
         H         H         1.0       0.3975420812492648  0.8709288498537071  0.25362396270157733          1.0000   
         H         H         1.0       0.3870204005520477  0.8938259776448971  0.24369233531201462          1.0000   
         C         C         1.0       0.8385849261720967  0.9570054058626023  0.3626818883294272 1.0000   
         C         C         1.0       0.8290480315694123  0.9603088660942515  0.33377324740206615          1.0000   
         H         H         1.0       0.8626332614593484  0.9656662970671921  0.35935157886934443          1.0000   
         H         H         1.0       0.8393829226608911  0.9726842539504421  0.37727311290042737          1.0000   
         H         H         1.0       0.8273722613575896  0.9435852183563814  0.32090849230029167          1.0000   
         H         H         1.0       0.8467265250528637  0.9790237503035855  0.323960400820814  1.0000   
         C         C         1.0       0.5491870180149273  0.945799362466189   0.4033910671536742 1.0000   
         C         C         1.0       0.5451579827222923  0.9713833728902718  0.40720133106405476          1.0000   
         H         H         1.0       0.5467003078426604  0.9399253337857142  0.38251290727878423          1.0000   
         H         H         1.0       0.5332833136839334  0.9259057905837182  0.4144003020067847 1.0000   
         H         H         1.0       0.563812172695941   0.9906526037830199  0.39871493427290094          1.0000   
         H         H         1.0       0.5445891821462668  0.9756537140864672  0.4296380896923026 1.0000   
         C         C         1.0       0.8726923656527973  0.9677795792228704  0.0754156456808771 1.0000   
         C         C         1.0       0.8772481461197779  0.9968714670941667  0.08661489266383506          1.0000   
         H         H         1.0       0.8664367174739056  0.9653418239003364  0.053386560447462046         1.0000   
         H         H         1.0       0.8943495421971233  0.9698140336905047  0.0768765093786954 1.0000   
         H         H         1.0       0.8991714910706728  0.016223393485757853         0.07720747869403675          1.0000   
         H         H         1.0       0.8837784695581867  0.9991095453542782  0.10828699399135396          1.0000   
         C         C         1.0       0.6573051149657697  0.8806686221965389  0.5169771602225518 1.0000   
         C         C         1.0       0.6751079885751115  0.8891105644870585  0.49061553511452805          1.0000   
         H         H         1.0       0.6452476589359146  0.8570488032953779  0.5184505127040842 1.0000   
         H         H         1.0       0.6381218130453645  0.8841627655599464  0.5169131325706333 1.0000   
         H         H         1.0       0.665669890707765   0.8707757108974219  0.47637825859355765          1.0000   
         H         H         1.0       0.6969577447319066  0.8939898545772765  0.49372088273741677          1.0000   
         C         C         1.0       0.6413976846141539  0.8844068106885643  0.21509940439305225          1.0000   
         C         C         1.0       0.6406586977447157  0.8985279724863047  0.24338385514089048          1.0000   
         H         H         1.0       0.6542518797152522  0.8750043851728098  0.21532352668056154          1.0000   
         H         H         1.0       0.6194701717760833  0.8659069698109629  0.2099385742567767 1.0000   
         H         H         1.0       0.6267094584984335  0.8818919677855407  0.25941966630021335          1.0000   
         H         H         1.0       0.6289074095483811  0.9096433842647685  0.23765512399771693          1.0000   
         C         C         1.0       0.5853137054550451  0.9468118446199174  0.06088470109927698          1.0000   
         C         C         1.0       0.5867820086393065  0.9665122252422785  0.037753613909305844         1.0000   
         H         H         1.0       0.5770483523841983  0.928057569869611   0.04824286736419973          1.0000   
         H         H         1.0       0.5697901945376996  0.9431504220152114  0.07808116392646683          1.0000   
         H         H         1.0       0.5854388468971093  0.9561423958637018  0.017579085132924943         1.0000   
         H         H         1.0       0.6089725140612521  0.9852609454005986  0.03625310257526504          1.0000   
         C         C         1.0       0.9141221780046697  0.2283734695481336  0.4589558760276879 1.0000   
         C         C         1.0       0.906151512369617   0.24432320835540677           0.4377903404846803 1.0000   
         H         H         1.0       0.03353877348090273           0.3202884392721666 0.004260415484813818         1.0000   
         H         H         1.0       0.9137523477029051  0.21062528965426916           0.44755311740882864          1.0000   
         H         H         1.0       0.8826624156786631  0.23109846877771353           0.4371874380870268 1.0000   
         H         H         1.0       0.9120869074290905  0.24283587533267273           0.4162483753079706 1.0000   
         C         C         1.0       0.704553128310296   0.0837037810813034  0.474518974951919  1.0000   
         C         C         1.0       0.6819400781356623  0.0911870280520505  0.46764476337670996          1.0000   
         H         H         1.0       0.7062115206542201  0.08355772614203019           0.4981238830634134 1.0000   
         H         H         1.0       0.7257336645644595  0.10105533019507654           0.46697718923897896          1.0000   
         H         H         1.0       0.6773304094473604  0.08925920331876146           0.44515987040243166          1.0000   
         H         H         1.0       0.6605967763855412  0.0747622915957382  0.47711885091247475          1.0000   
         C         C         1.0       0.8772011847007197  0.15276814249018825           0.04256453119284592          1.0000   
         C         C         1.0       0.8443079077067196  0.13321702775630515           0.03820204468492681          1.0000   
         H         H         1.0       0.8883304305393248  0.14767479708363201           0.026478691963118143         1.0000   
         H         H         1.0       0.8837111102645997  0.14830103905889164           0.06225219528805535          1.0000   
         H         H         1.0       0.804042084168376   0.06363455276869501           0.6265571833899264 1.0000   
         H         H         1.0       0.8388684893686209  0.1372689844578507  0.017906490185216395         1.0000   
         C         C         1.0       0.9757226271559657  0.3039850703818807  0.3577363110143134 1.0000   
         C         C         1.0       0.002632170789705235          0.3189444705273853 0.33919755847658356          1.0000   
         H         H         1.0       0.9792193492778923  0.29232422065639546           0.37407926373310313          1.0000   
         H         H         1.0       0.977478698420528   0.32060759382824827           0.3719428277006699 1.0000   
         H         H         1.0       0.9995528216806381  0.30159123374164226           0.32458347197305576          1.0000   
         H         H         1.0       0.021816544199474652          0.3245775048305365 0.35165216678644107          1.0000   
         C         C         1.0       0.7261046057631251  0.07081779369032346           0.20220999999563732          1.0000   
         C         C         1.0       0.7533200305407951  0.0943159237331389  0.18460731967414076          1.0000   
         H         H         1.0       0.7342807490310006  0.06877186026096838           0.2230013735540961 1.0000   
         H         H         1.0       0.7108733960808287  0.07668780337158763           0.20657560670285446          1.0000   
         H         H         1.0       0.7497598806795264  0.09109798401840664           0.16180194939428283          1.0000   
         H         H         1.0       0.7720457946292997  0.09038847016971883           0.18695134184239712          1.0000   
         C         C         1.0       0.782760020416203   0.11383670269793388           0.32174791350485943          1.0000   
         C         C         1.0       0.7748623977566224  0.09511096671926975           0.29374062630528863          1.0000   
         H         H         1.0       0.7950870801890386  0.10795053922602664           0.334884517174081  1.0000   
         H         H         1.0       0.7615843189884653  0.10552394531419751           0.3337054773953488 1.0000   
         H         H         1.0       0.7945196910115753  0.10333827855057513           0.28090268021680553          1.0000   
         H         H         1.0       0.760786174843985   0.09884278496340218           0.2808302714793053 1.0000   
         C         C         1.0       0.8176843959532143  0.29437546863889935           0.4040076170420263 1.0000   
         C         C         1.0       0.8270952782651129  0.2962786562655786  0.4339682959816753 1.0000   
         H         H         1.0       0.8225044887579366  0.31442861870380623           0.3958358150232382 1.0000   
         H         H         1.0       0.79316482907398    0.28291805718593127           0.4016401629048198 1.0000   
         H         H         1.0       0.8495951696271608  0.29950421105126673           0.4322516778506054 1.0000   
         H         H         1.0       0.8306873304851358  0.31580012732743007           0.4449645493806714 1.0000   
         C         C         1.0       0.8751803295268102  0.30959368646515417           0.1475462098984035 1.0000   
         C         C         1.0       0.8696235531572681  0.31711268295244344           0.11741168531636555          1.0000   
         H         H         1.0       0.8819290503520966  0.32950054188319616           0.15893026725335163          1.0000   
         H         H         1.0       0.8934350637709735  0.3083014457818057  0.14501067859808983          1.0000   
         H         H         1.0       0.8806341231204979  0.3400813766975741  0.11271827919434738          1.0000   
         H         H         1.0       0.8488627765542467  0.3129931241734944  0.11408519923866962          1.0000   
         C         C         1.0       0.4055717666061152  0.2271070598147785  0.47339679145752206          1.0000   
         C         C         1.0       0.45424491789713556           0.3151004435083824 0.921828104615522  1.0000   
         H         H         1.0       0.3852103904303722  0.2079580467505772  0.4646740126632995 1.0000   
         H         H         1.0       0.43597287107319255           0.27444843540461666          0.9443375686038626 1.0000   
         H         H         1.0       0.4664466897095151  0.3236009804352201  0.9021196712040946 1.0000   
         H         H         1.0       0.4346346338214557  0.314993337638336   0.916503660402491  1.0000   
         C         C         1.0       0.4548519675764359  0.07888075439774866           0.4515463805404496 1.0000   
         C         C         1.0       0.43026539005355124           0.05551410032212357          0.4703751810670852 1.0000   
         H         H         1.0       0.44859652012862733           0.07710082758610246          0.42923495881931245          1.0000   
         H         H         1.0       0.47291637062817243           0.07478408752418304          0.45278926709657585          1.0000   
         H         H         1.0       0.41534366647278476           0.06012385726586867          0.4786093909764114 1.0000   
         H         H         1.0       0.44030750502014654           0.052866339314465494         0.488394322985697  1.0000   
         C         C         1.0       0.5406527182331489  0.12643321877045877           0.02144355321903291          1.0000   
         C         C         1.0       0.5621872306100805  0.11713232045094932           0.01382094377218257          1.0000   
         H         H         1.0       0.5335282977691564  0.11906494635395737           0.04250787307357037          1.0000   
         H         H         1.0       0.5189802227286285  0.11426081791668365           0.01044683046097128          1.0000   
         H         H         1.0       0.5681709683299108  0.11927931104268719           0.992147230350597  1.0000   
         H         H         1.0       0.5449708895733674  0.0723700048481807  0.5780724158796668 1.0000   
         C         C         1.0       0.6888512146510275  0.25075155262144594           0.5763996669727812 1.0000   
         C         C         1.0       0.6627616033274132  0.2276368472383549  0.593686352644433  1.0000   
         H         H         1.0       0.7049991479405244  0.26829225338800555           0.587763286308111  1.0000   
         H         H         1.0       0.6817003050642033  0.26013720802764145           0.5605322849556208 1.0000   
         H         H         1.0       0.6685073971402841  0.23717519813321025           0.6141440955834341 1.0000   
         H         H         1.0       0.6612202949969526  0.20654551245599714           0.594261151128845  1.0000   
         C         C         1.0       0.4585048010660014  0.2735801601370626  0.14288699933768964          1.0000   
         C         C         1.0       0.4713752932086157  0.3056164086927424  0.14043076899093146          1.0000   
         H         H         1.0       0.4386576104788278  0.26342855324127434           0.15643829810670842          1.0000   
         H         H         1.0       0.4488387141736123  0.2636602974383818  0.12295406434821127          1.0000   
         H         H         1.0       0.456282827596671   0.30902364555526457           0.12847072108301777          1.0000   
         H         H         1.0       0.49047569377083294           0.3149511691803834 0.12562751855441517          1.0000   
         C         C         1.0       0.5347136963542607  0.13766913282231583           0.15457983299296285          1.0000   
         C         C         1.0       0.5271402760376023  0.12196997531389363           0.18338792573000318          1.0000   
         H         H         1.0       0.5208092844557694  0.12452255726335282           0.1385554091850361 1.0000   
         H         H         1.0       0.5562402128781778  0.1411558000984098  0.14922250997160252          1.0000   
         H         H         1.0       0.5490222347652943  0.1294918164826568  0.19343304809256712          1.0000   
         H         H         1.0       0.5196874725196599  0.13145921435443778           0.19917236783211736          1.0000   
         C         C         1.0       0.5142345750271213  0.08571162638411776           0.3233000510219562 1.0000   
         C         C         1.0       0.5008705356477715  0.10080306049545687           0.3093730553819895 1.0000   
         H         H         1.0       0.5240786174781968  0.09535203380662131           0.3427700008600108 1.0000   
         H         H         1.0       0.533258673444707   0.08970690152386264           0.3099762211781173 1.0000   
         H         H         1.0       0.485658544940618   0.10162299798908161           0.32413198875539334          1.0000   
         H         H         1.0       0.4895060620354856  0.08785430571782402           0.2915684296082445 1.0000   
         C         C         1.0       0.5794489227910319  0.29512998111266586           0.36949957002824435          1.0000   
         C         C         1.0       0.5859545159555576  0.2849266266378074  0.39609874435132614          1.0000   
         H         H         1.0       0.5579329235424155  0.2913114984802187  0.37150862184540967          1.0000   
         H         H         1.0       0.5928227514846535  0.316649722970072   0.3669805360460132 1.0000   
         H         H         1.0       0.5994524296257545  0.3037783082414959  0.4086176309162305 1.0000   
         H         H         1.0       0.6011789109923577  0.27807945207447565           0.391654826337138  1.0000   
         C         C         1.0       0.6191684535929396  0.33786830568564513           0.08768425322897948          1.0000   
         C         C         1.0       0.5992720999335389  0.3338015205113232  0.06257307500520139          1.0000   
         H         H         1.0       0.6297469867472748  0.3600665167226975  0.09578397470006099          1.0000   
         H         H         1.0       0.638096614018605   0.3375602715773607  0.08193683209534644          1.0000   
         H         H         1.0       0.5768399205352657  0.3249209909734427  0.06974565793562723          1.0000   
         H         H         1.0       0.6051771464637642  0.35426931270715695           0.05341306058812353          1.0000   
         C         C         1.0       0.6850346102975082  0.2230619528072713  0.2564364013375172 1.0000   
         C         C         1.0       0.6809624609977181  0.19582567750647661           0.24222096930972478          1.0000   
         H         H         1.0       0.6984542097805696  0.24381172070134696           0.24458326547135847          1.0000   
         H         H         1.0       0.6952996853896501  0.2264285833224787  0.2770400835919458 1.0000   
         H         H         1.0       0.667357031090179   0.1904906106848983  0.22235079216459405          1.0000   
         H         H         1.0       0.6671290496857663  0.1776767082786806  0.25338130924437513          1.0000   
         C         C         1.0       0.6312805895153125  0.3077642506407407  0.797024693259782  1.0000   
         C         C         1.0       0.6277860981571908  0.30100123569902776           0.770110910547858  1.0000   
         C         C         1.0       0.615958700761086   0.2731328184143245  0.7621677727587952 1.0000   
         C         C         1.0       0.60829851517397    0.251859010312382   0.7819071973634609 1.0000   
         C         C         1.0       0.6135168480834149  0.2605679125005444  0.8089706848458639 1.0000   
         C         C         1.0       0.6233775953613623  0.2873518150194551  0.8168192773740846 1.0000   
         H         H         1.0       0.6364100592011195  0.31570871874406553           0.7521862357789894 1.0000   
         H         H         1.0       0.6135182398848391  0.2692720690713031  0.7407294248888011 1.0000   
         H         H         1.0       0.6074503011136166  0.24586078319409882           0.8258240569378534 1.0000   
         H         H         1.0       0.6241147993889065  0.29206545933050215           0.8390857516206689 1.0000   
         C         C         1.0       0.6281727093867051  0.20999440322616464           0.7920723974971634 1.0000   
         C         C         1.0       0.5993517483500211  0.20117008836438113           0.789731643822539  1.0000   
         C         C         1.0       0.5800462748222757  0.1732829466815366  0.7962395992129722 1.0000   
         C         C         1.0       0.5873481235843118  0.15389157778506865           0.8015092423756341 1.0000   
         C         C         1.0       0.6149291202814302  0.16124497391681028           0.8022623188973002 1.0000   
         C         C         1.0       0.636031821317961   0.19056679590606126           0.8000997482346575 1.0000   
         C         C         1.0       0.590639674174597   0.21949460964082912           0.7738138101502468 1.0000   
         C         C         1.0       0.5932299854767142  0.21029140199417123           0.742470631317856  1.0000   
         C         C         1.0       0.5714832156238425  0.18491450101851534           0.7302091673059452 1.0000   
         C         C         1.0       0.5732752181152719  0.17761601796236426           0.7039037410920842 1.0000   
         C         C         1.0       0.5988217574784693  0.1926135711364535  0.6899547865969556 1.0000   
         C         C         1.0       0.6220527290673742  0.21556883096245016           0.7025237410384785 1.0000   
         C         C         1.0       0.6197767782563154  0.2246437188780774  0.728451000443867  1.0000   
         C         C         1.0       0.5411924803250265  0.20364165762812034           0.7990672761289264 1.0000   
         C         C         1.0       0.5122317155614803  0.19338915412441132           0.7974927848712566 1.0000   
         C         C         1.0       0.49903071076682126           0.19263150629981157          0.7734141311287964 1.0000   
         C         C         1.0       0.5181912459821352  0.20817915903826867           0.7518379852569622 1.0000   
         C         C         1.0       0.5466813156367775  0.22042251458505754           0.7545265694148271 1.0000   
         C         C         1.0       0.5595745493716031  0.21592673196918358           0.7761439678691453 1.0000   
         C         C         1.0       0.4648615728785613  0.17517436978735113           0.7698148903901885 1.0000   
         C         C         1.0       0.451893290477352   0.0908374962230149  0.7700577809205196 1.0000   
         C         C         1.0       0.4422952176483945  0.09897018643965177           0.7926548660250046 1.0000   
         C         C         1.0       0.44781946279112395           0.12636397271498512          0.7921973298202151 1.0000   
         C         C         1.0       0.4580281775040169  0.14359159308096286           0.7687802302237293 1.0000   
         C         C         1.0       0.4689387023634126  0.13444420207039598           0.7486226774513065 1.0000   
         C         C         1.0       0.4642195241036564  0.10818188264243599           0.7475332603091596 1.0000   
         C         C         1.0       0.45785377441401304           0.18735925110324264          0.742231969539572  1.0000   
         C         C         1.0       0.46657713702640496           0.21533235372455486          0.7392852057170558 1.0000   
         C         C         1.0       0.464412880224543   0.22627656240271282           0.7143437057465322 1.0000   
         C         C         1.0       0.4526018198682337  0.20818540399506258           0.6917062977148631 1.0000   
         C         C         1.0       0.44218920157610525           0.17972974015188262          0.6948005049089743 1.0000   
         C         C         1.0       0.44439695216658465           0.16923616552312795          0.7196012139998864 1.0000   
         C         C         1.0       0.4163289808756139  0.1622880674390609  0.7925423082229018 1.0000   
         C         C         1.0       0.39848475135819844           0.16367765209343182          0.8101692789617644 1.0000   
         C         C         1.0       0.4102972642268986  0.18697441060028866           0.8276735614595933 1.0000   
         C         C         1.0       0.43918393027458047           0.20524777170432568          0.8288356767147693 1.0000   
         C         C         1.0       0.45612811857789587           0.20211907510717542          0.8106738519672133 1.0000   
         C         C         1.0       0.4453225857430846  0.17970098049064576           0.7922240132260706 1.0000   
         H         H         1.0       0.6453990432435877  0.23061579705015867           0.7862969359445058 1.0000   
         H         H         1.0       0.5561440825562475  0.16335479326386643           0.7975569082928163 1.0000   
         H         H         1.0       0.5706126681881056  0.1325873137805452  0.8078638757917067 1.0000   
         H         H         1.0       0.6590448052140409  0.19851363431911098           0.7989527795766327 1.0000   
         H         H         1.0       0.5512991782563171  0.17366625938154068           0.7422461610664727 1.0000   
         H         H         1.0       0.5530117433711967  0.16252134548467198           0.6937329595075856 1.0000   
         H         H         1.0       0.6431589779594707  0.23003787236110515           0.6927193529813646 1.0000   
         H         H         1.0       0.6376535628361697  0.23833607351283626           0.7400151277082092 1.0000   
         H         H         1.0       0.5494849828136552  0.2015419004858716  0.8192904307190817 1.0000   
         H         H         1.0       0.49800021604880057           0.1810514610243955 0.814357826300066  1.0000   
         H         H         1.0       0.5106718898925521  0.2084234442703534  0.731634557645018  1.0000   
         H         H         1.0       0.5598811097041261  0.23136969947690478           0.7351857454975886 1.0000   
         H         H         1.0       0.4310911274558489  0.08333603041495499           0.8091735556317395 1.0000   
         H         H         1.0       0.4404558022141021  0.13309042676481062           0.8100698232129809 1.0000   
         H         H         1.0       0.4804735400870232  0.14864484404912745           0.7315575811759674 1.0000   
         H         H         1.0       0.4714134586914602  0.10223623438895735           0.7291989723753713 1.0000   
         H         H         1.0       0.4788051935862734  0.2283424719445326  0.756100971639693  1.0000   
         H         H         1.0       0.470507594602375   0.24823040119634945           0.7120810939100457 1.0000   
         H         H         1.0       0.43360219330479266           0.16537927745091627          0.6774337283360145 1.0000   
         H         H         1.0       0.43370438842698383           0.1458177611442866 0.7203326136020908 1.0000   
         H         H         1.0       0.40518795410891667           0.14517035095751946          0.7791103302258124 1.0000   
         H         H         1.0       0.37522129267387033           0.14844046056436855          0.8096198921148354 1.0000   
         H         H         1.0       0.44928977306957696           0.22380868202871812          0.8433283116271287 1.0000   
         H         H         1.0       0.47835307927417603           0.2151596524269577 0.8127542597294596 1.0000   
         C         C         1.0       0.5025130301707893  0.22445057133811855           0.637499761894127  1.0000   
         C         C         1.0       0.5276116113162789  0.24239272732527575           0.6226175772340423 1.0000   
         C         C         1.0       0.5392442735451141  0.2313453592941729  0.6062996147320253 1.0000   
         C         C         1.0       0.5273398204229608  0.20154908768369614           0.6036723470867924 1.0000   
         C         C         1.0       0.5030756325480976  0.18502358701002586           0.6194252073257652 1.0000   
         C         C         1.0       0.491700627165527   0.19648215927628984           0.63757007422156   1.0000   
         H         H         1.0       0.5375045611570487  0.264940234127264   0.6228408413825162 1.0000   
         H         H         1.0       0.6336997309492202  0.30436516236611894           0.990945341626577  1.0000   
         H         H         1.0       0.49158901299208735           0.16271539282930841          0.61918150894865   1.0000   
         H         H         1.0       0.471192341306735   0.18213954617307002           0.646198217561343  1.0000   
         C         C         1.0       0.5324251222260821  0.1475527747831788  0.6052822473099153 1.0000   
         C         C         1.0       0.578223069517609   0.21517526162086692           2.8297844506530723e-05       1.0000   
         C         C         1.0       0.56629829761372    0.19413050106377783           0.9809291809471892 1.0000   
         C         C         1.0       0.5524865310240736  0.16623459652118833           0.9882216462893402 1.0000   
         C         C         1.0       0.5124685225661438  0.10160268610046075           0.5841133892117013 1.0000   
         C         C         1.0       0.5228494244125331  0.11887803827944117           0.607235894819925  1.0000   
         C         C         1.0       0.5948056566420967  0.24764943884202464           0.9890222495344647 1.0000   
         C         C         1.0       0.6258341054367577  0.25137673790392084           0.9817387146887939 1.0000   
         C         C         1.0       0.6325531078472146  0.243375074641143   0.957318082575428  1.0000   
         C         C         1.0       0.660046403668528   0.24940758800997367           0.9506864938594342 1.0000   
         C         C         1.0       0.6805158105620335  0.2615177574572182  0.9702397213739677 1.0000   
         C         C         1.0       0.6742727162274564  0.2675454936249014  0.9959336550693006 1.0000   
         C         C         1.0       0.6475822722826621  0.26392685423613366           0.0013532960424162965        1.0000   
         C         C         1.0       0.5498360672519376  0.24038995271610922           0.9625067701117579 1.0000   
         C         C         1.0       0.5369413471793096  0.24486702675648378           0.9410583105830829 1.0000   
         C         C         1.0       0.5533015269799529  0.26144094754979125           0.9195698289624704 1.0000   
         C         C         1.0       0.5832402203250934  0.2751838126018601  0.9197151835461354 1.0000   
         C         C         1.0       0.5968464976699445  0.27159037000620584           0.941680851430975  1.0000   
         C         C         1.0       0.580023839508815   0.2520579517499474  0.962959369847211  1.0000   
         C         C         1.0       0.5350361600905287  0.26225450099291686           0.8934942188572303 1.0000   
         C         C         1.0       0.4982717945571696  0.17186498716972837           0.8719520808374697 1.0000   
         C         C         1.0       0.4801484459331485  0.1798616803381987  0.8816472001217195 1.0000   
         C         C         1.0       0.4914989902295166  0.20792731561086306           0.889491987054621  1.0000   
         C         C         1.0       0.5194618711317891  0.2287054405926059  0.8829044813016451 1.0000   
         C         C         1.0       0.536467509471734   0.22002988528430276           0.8724580939135256 1.0000   
         C         C         1.0       0.5274006511180999  0.19225319737795235           0.867245144369777  1.0000   
         C         C         1.0       0.5540365567786721  0.2835762197592416  0.8695402381079558 1.0000   
         C         C         1.0       0.5756010092603692  0.31061813448981246           0.8761106880536098 1.0000   
         C         C         1.0       0.59294085885121    0.33003603034072165           0.8563293805819391 1.0000   
         C         C         1.0       0.588931759159896   0.32344940190849925           0.8282005790930054 1.0000   
         C         C         1.0       0.5669714514807784  0.2967553749226157  0.8210713727322486 1.0000   
         C         C         1.0       0.5506643877805124  0.2770323586298757  0.8421494572423726 1.0000   
         C         C         1.0       0.4921330302886252  0.2647026649210518  0.8821784862450993 1.0000   
         C         C         1.0       0.47171348716297967           0.2712508073987972 0.8885047892806431 1.0000   
         C         C         1.0       0.46926644528836314           0.2788408900664011 0.9150274414926965 1.0000   
         C         C         1.0       0.4892083181345875  0.2834828914211374  0.9337711722739075 1.0000   
         C         C         1.0       0.5133556501857383  0.283886776236302   0.9261397305989325 1.0000   
         C         C         1.0       0.5132372446517417  0.2708679328363758  0.9013582423084486 1.0000   
         H         H         1.0       0.542959743609711   0.16147893138957478           0.6230123642916097 1.0000   
         H         H         1.0       0.5687064456886058  0.20137029809912985           0.9592632626977463 1.0000   
         H         H         1.0       0.5451978967999407  0.14979165371114533           0.9733996377056667 1.0000   
         H         H         1.0       0.5260890914839655  0.11207860507015859           0.6279834987981994 1.0000   
         H         H         1.0       0.617804914289351   0.2356387528076184  0.9405350038945242 1.0000   
         H         H         1.0       0.6663137775862482  0.24474145094590544           0.9307694993507718 1.0000   
         H         H         1.0       0.6908444164448148  0.2773849735437248  0.011294532588362438         1.0000   
         H         H         1.0       0.6422512584573984  0.2693350063750908  0.021450290443946862         1.0000   
         H         H         1.0       0.5345568363962787  0.2263598007044678  0.9786150369411459 1.0000   
         H         H         1.0       0.5151223671131672  0.23735027580677898           0.9438945810871981 1.0000   
         H         H         1.0       0.5974965842595273  0.28743503024457034           0.9033574638142916 1.0000   
         H         H         1.0       0.619839682403881   0.2830471315545258  0.9432581085466624 1.0000   
         H         H         1.0       0.4582305199065104  0.1651057689747846  0.88432663970394   1.0000   
         H         H         1.0       0.4757186840806139  0.21099149398113234           0.9013076070310481 1.0000   
         H         H         1.0       0.5579548732587644  0.23609214960319244           0.8664522425816854 1.0000   
         H         H         1.0       0.5422031493189639  0.18635818620522332           0.8609271237777075 1.0000   
         H         H         1.0       0.5750900508572407  0.3162390869203419  0.8965690142479341 1.0000   
         H         H         1.0       0.6108128491476774  0.3502285988401607  0.8633695259748113 1.0000   
         H         H         1.0       0.5627073032893218  0.28886246150300865           0.8003898034486147 1.0000   
         H         H         1.0       0.5338075793098183  0.2551142280847165  0.8391314779941468 1.0000   
         H         H         1.0       0.4925074134058316  0.25603433021772515           0.8627506913793704 1.0000   
         H         H         1.0       0.4542448106189099  0.26530476442233797           0.8748493790962786 1.0000   
         H         H         1.0       0.4499937462391609  0.24402780931242649           0.5080843335813121 1.0000   
         H         H         1.0       0.5298771528882418  0.29196308397650866           0.9405513580511193 1.0000   
         C         C         1.0       0.7865944848410862  0.2360555408972673  0.6239304811747807 1.0000   
         C         C         1.0       0.770359096593181   0.2421827830838965  0.6422074826581268 1.0000   
         C         C         1.0       0.7437796312983104  0.2204647604006209  0.6529154659817207 1.0000   
         C         C         1.0       0.7353470443878001  0.1920899707038459  0.6498374288570496 1.0000   
         C         C         1.0       0.75013377501803    0.18622058801341598           0.629325250965264  1.0000   
         C         C         1.0       0.7752626791902857  0.20767834632610277           0.6168063678579405 1.0000   
         H         H         1.0       0.7786070583274939  0.2639967450066078  0.6491327367968159 1.0000   
         H         H         1.0       0.7315953425883706  0.22527627287311852           0.6684991600120728 1.0000   
         H         H         1.0       0.7476476845480818  0.16595760609054383           0.6252024610593625 1.0000   
         H         H         1.0       0.785997907523742   0.20266509114567358           0.6004271909058919 1.0000   
         C         C         1.0       0.6922050990344931  0.12161262380432865           0.6436913082228167 1.0000   
         C         C         1.0       0.6999352370319196  0.1349595666441132  0.6695457253867546 1.0000   
         C         C         1.0       0.6893461859184046  0.11721307339611729           0.6920456919062956 1.0000   
         C         C         1.0       0.6771436144690173  0.0877144584817922  0.6885009453703801 1.0000   
         C         C         1.0       0.6733429677719094  0.07552779020991841           0.6631659315396308 1.0000   
         C         C         1.0       0.6804786918911172  0.09260947526334087           0.6403976803183665 1.0000   
         C         C         1.0       0.712769208906171   0.168416710779303   0.6723970213011583 1.0000   
         C         C         1.0       0.6828207149607991  0.16762759241889108           0.6697926093530183 1.0000   
         C         C         1.0       0.6650637148194165  0.16102982098557167           0.692267332737449  1.0000   
         C         C         1.0       0.6375735220831296  0.15591845243019573           0.6891294894301899 1.0000   
         C         C         1.0       0.6277602434077688  0.15824191551149402           0.6633650571622688 1.0000   
         C         C         1.0       0.6457639416211783  0.1661773882489561  0.6411943838763826 1.0000   
         C         C         1.0       0.6730735429214149  0.1700536211763799  0.6435899626794028 1.0000   
         C         C         1.0       0.7559905937569388  0.17450691489995085           0.6963918247943437 1.0000   
         C         C         1.0       0.7754543936774604  0.18433029369753018           0.7174372122837706 1.0000   
         C         C         1.0       0.7761727339210218  0.20303450896777347           0.7368043194126225 1.0000   
         C         C         1.0       0.7561258077821702  0.2111365868429387  0.7355011056599671 1.0000   
         C         C         1.0       0.7347638836308417  0.19988539224267227           0.7155516802097195 1.0000   
         C         C         1.0       0.7339462309756688  0.18067687071989944           0.6960383029392678 1.0000   
         C         C         1.0       0.7979593240752115  0.21167582120355316           0.7628741334318463 1.0000   
         C         C         1.0       0.7280191803434999  0.13682979877099075           0.8012318291781427 1.0000   
         C         C         1.0       0.7470015992443099  0.13500634135095116           0.7839123649163466 1.0000   
         C         C         1.0       0.7727143761101316  0.15901720257121377           0.775998501544042  1.0000   
         C         C         1.0       0.7784449909955683  0.1854386554511751  0.783037656050091  1.0000   
         C         C         1.0       0.7584166190429689  0.18688739288528397           0.800543705260837  1.0000   
         C         C         1.0       0.7351447995635992  0.16359337677143573           0.8102448777861594 1.0000   
         C         C         1.0       0.8121018987022809  0.24139166045208985           0.7784922561954271 1.0000   
         C         C         1.0       0.815077864704773   0.2650070394413981  0.7656552913854472 1.0000   
         C         C         1.0       0.8324526061542513  0.2920448012625548  0.7769282613445265 1.0000   
         C         C         1.0       0.8464249815614088  0.2953617281926323  0.8004772075185255 1.0000   
         C         C         1.0       0.8423855972379998  0.27200940685389097           0.8147333376362156 1.0000   
         C         C         1.0       0.8257563241178744  0.2451855731651521  0.8034235599740578 1.0000   
         C         C         1.0       0.8415691019698909  0.20462826754998867           0.7679859513149989 1.0000   
         C         C         1.0       0.8665601666251986  0.20699841063724428           0.7585644731270317 1.0000   
         C         C         1.0       0.8792252896765568  0.22250658837409176           0.7341988864778728 1.0000   
         C         C         1.0       0.8650183252897826  0.2330446924932369  0.7198667340590451 1.0000   
         C         C         1.0       0.840371381085955   0.2298914787177789  0.7296248013421178 1.0000   
         C         C         1.0       0.827851360587473   0.2152215554619255  0.7534329768842594 1.0000   
         H         H         1.0       0.6936265598643385  0.13379601855325504           0.6251219865277666 1.0000   
         H         H         1.0       0.687377994389959   0.12461682138576576           0.7126639509085674 1.0000   
         H         H         1.0       0.6677253233781927  0.07364603089919348           0.7065464710935893 1.0000   
         H         H         1.0       0.6715003435671519  0.08351273765218113           0.6202863899444322 1.0000   
         H         H         1.0       0.671170595480568   0.15446782267717626           0.7118155528070436 1.0000   
         H         H         1.0       0.6249815804540184  0.14836747523420135           0.7081241303163234 1.0000   
         H         H         1.0       0.6390925265593584  0.16839762913111145           0.6210405428323342 1.0000   
         H         H         1.0       0.6839809228665783  0.17338288423305434           0.6246372844789837 1.0000   
         H         H         1.0       0.7569097499000288  0.1603339650799094  0.6821863498289481 1.0000   
         H         H         1.0       0.790173935349931   0.17695677368349386           0.7172216844552932 1.0000   
         H         H         1.0       0.7528189058173591  0.22264414406739225           0.7518543045270113 1.0000   
         H         H         1.0       0.7190968729871646  0.2061572758299954  0.7157295907845661 1.0000   
         H         H         1.0       0.7441104753998597  0.11507648708120218           0.7775840150395067 1.0000   
         H         H         1.0       0.7858990771415809  0.15538291209512506           0.7606991257413636 1.0000   
         H         H         1.0       0.7631810087042268  0.2075914253014008  0.8073911282963955 1.0000   
         H         H         1.0       0.7212495398493886  0.16430219600308105           0.8276942678045676 1.0000   
         H         H         1.0       0.8040921644021326  0.26221283710793925           0.7457892448470402 1.0000   
         H         H         1.0       0.8375556217068558  0.31078851826204495           0.7691887805970244 1.0000   
         H         H         1.0       0.8536920857497594  0.2747088162423735  0.8337600702315104 1.0000   
         H         H         1.0       0.8222599513956464  0.22548296933942813           0.8136335415713123 1.0000   
         H         H         1.0       0.8304128668255761  0.19026238717246177           0.7857742157372455 1.0000   
         H         H         1.0       0.8758419310222693  0.1967963365893415  0.769120744331541  1.0000   
         H         H         1.0       0.8727544292237033  0.2437216550131903  0.6997526079708312 1.0000   
         H         H         1.0       0.8310282664198635  0.240336529796016   0.7183328062404306 1.0000   
         C         C         1.0       0.8558908832496579  0.32143644365063145           0.862831845324795  1.0000   
         C         C         1.0       0.827458074969402   0.30783086434801316           0.8706182121874377 1.0000   
         C         C         1.0       0.8189220653653521  0.28811853651812896           0.8920104286195795 1.0000   
         C         C         1.0       0.837703255032066   0.28478988367680874           0.9066902257672078 1.0000   
         C         C         1.0       0.8656651461734415  0.3010286008770432  0.8999002944962665 1.0000   
         C         C         1.0       0.8761310305166448  0.31898496629542084           0.8783671663683184 1.0000   
         H         H         1.0       0.8116480431484947  0.31019386703271834           0.860096152367775  1.0000   
         H         H         1.0       0.7958162040249533  0.2773869295113185  0.8978663677062266 1.0000   
         H         H         1.0       0.8806244768948946  0.29717117617635164           0.9107493973298976 1.0000   
         H         H         1.0       0.8985158993186875  0.32780416851641586           0.8731037200948543 1.0000   
         C         C         1.0       0.7992772529752329  0.21946717957786874           0.890900197216625  1.0000   
         C         C         1.0       0.8215279010109044  0.23549116208142823           0.9082523709283562 1.0000   
         C         C         1.0       0.8450576745426267  0.23156547036069788           0.9059430505488745 1.0000   
         C         C         1.0       0.8453467474843966  0.2129071657070027  0.88634831357501   1.0000   
         C         C         1.0       0.8226580437973299  0.19754700145926482           0.8703271155703787 1.0000   
         C         C         1.0       0.7996713357322205  0.20101423469218352           0.8715673162437019 1.0000   
         C         C         1.0       0.8262902427454433  0.26106403569813874           0.9284056122108411 1.0000   
         C         C         1.0       0.7974668350817999  0.25648074893197653           0.9434354047504029 1.0000   
         C         C         1.0       0.7982459554581068  0.2788799965204629  0.9564671929473316 1.0000   
         C         C         1.0       0.7736399823293072  0.27722670153562473           0.9666085132413009 1.0000   
         C         C         1.0       0.7480004060821371  0.2524132330582543  0.9650881731157377 1.0000   
         C         C         1.0       0.7472930884879174  0.22815320140697484           0.9552250760102994 1.0000   
         C         C         1.0       0.7715830686004959  0.22951533332536916           0.9453980689780914 1.0000   
         C         C         1.0       0.8348159203766023  0.23983715120146243           0.9714401798897254 1.0000   
         C         C         1.0       0.8515860472037594  0.239686780623854   0.9923561548751649 1.0000   
         C         C         1.0       0.877751550082191   0.2652293073282269  0.9988596780204939 1.0000   
         C         C         1.0       0.8826519996237523  0.29019983147005746           0.9868169474312593 1.0000   
         C         C         1.0       0.8675229666533264  0.28961631025933726           0.9643153379931328 1.0000   
         C         C         1.0       0.8437972234892933  0.26413324673626226           0.9563333402022896 1.0000   
         C         C         1.0       0.8404194445117918  0.18498107738335684           0.5578895448205721 1.0000   
         C         C         1.0       0.8232755015968096  0.09829116558590993           0.5751857037152894 1.0000   
         C         C         1.0       0.8086634607341641  0.10287521318566381           0.5541209437684455 1.0000   
         C         C         1.0       0.8150134827493373  0.1292044025394155  0.548053023519325  1.0000   
         C         C         1.0       0.834459538198985   0.1531197760127068  0.5624465779870397 1.0000   
         C         C         1.0       0.849574637467804   0.14822255006074794           0.5812250430111393 1.0000   
         C         C         1.0       0.8427457524592536  0.12141455247929162           0.5891131749271822 1.0000   
         C         C         1.0       0.8518745593496435  0.2030175468258874  0.5845945651523442 1.0000   
         C         C         1.0       0.8723170518485598  0.23156232372455915           0.5849443507255074 1.0000   
         C         C         1.0       0.8691190155542934  0.24894920622465408           0.6034011751732569 1.0000   
         C         C         1.0       0.8472618761968632  0.23776422811857342           0.6233681302998545 1.0000   
         C         C         1.0       0.8344508405175427  0.20934603961349846           0.6288559687116931 1.0000   
         C         C         1.0       0.8357397366917295  0.19251404925979626           0.6091484125741514 1.0000   
         C         C         1.0       0.8901366612013322  0.20619809955758894           0.5318214211371586 1.0000   
         C         C         1.0       0.9065142547886071  0.2192532395156196  0.5086514028659902 1.0000   
         C         C         1.0       0.894804744402804   0.2164137869541927  0.4843484666950411 1.0000   
         C         C         1.0       0.9682186978921051  0.2959099851992084  0.9773647033164903 1.0000   
         C         C         1.0       0.939989135332008   0.28616648730604655           0.9863982316360075 1.0000   
         C         C         1.0       0.8611688400294228  0.19438278787527294           0.5306550334221141 1.0000   
         H         H         1.0       0.7833193531205924  0.22514930780607448           0.8905955429802208 1.0000   
         H         H         1.0       0.8651470107781216  0.24389193600656542           0.9172378852558495 1.0000   
         H         H         1.0       0.863965153914477   0.2097199839079266  0.8866148172241198 1.0000   
         H         H         1.0       0.7823679601003876  0.19052361291016565           0.8563654855813749 1.0000   
         H         H         1.0       0.8172315208882563  0.2985381220423526  0.956619677082733  1.0000   
         H         H         1.0       0.7729058171213454  0.2948405445788992  0.9757407757138792 1.0000   
         H         H         1.0       0.7265887050112637  0.20869991131235788           0.9591576922826505 1.0000   
         H         H         1.0       0.7702512066123371  0.20910699607396677           0.9446141448939297 1.0000   
         H         H         1.0       0.8162630049384989  0.22100585907162437           0.9672722531672271 1.0000   
         H         H         1.0       0.8454025476543067  0.22012397825418406           0.002609493156632947         1.0000   
         H         H         1.0       0.9018199140424539  0.31138047503577504           0.992046274210724  1.0000   
         H         H         1.0       0.8723688684010533  0.30798473521855607           0.9527456558301439 1.0000   
         H         H         1.0       0.791623823302638   0.0841066437574964  0.5434542032814496 1.0000   
         H         H         1.0       0.8080619767238042  0.1339704551727472  0.5296625960110032 1.0000   
         H         H         1.0       0.8680238847930534  0.16681008774459086           0.5908979530131184 1.0000   
         H         H         1.0       0.8560249906517713  0.11923457247664078           0.6045319257926846 1.0000   
         H         H         1.0       0.8868183388422314  0.2400427592429611  0.5669476541573286 1.0000   
         H         H         1.0       0.8823974710524738  0.27035558532150195           0.5998746582919461 1.0000   
         H         H         1.0       0.8178980424834168  0.19908858313984235           0.6438228184598216 1.0000   
         H         H         1.0       0.8200235881082722  0.16971849084582008           0.6079501322136236 1.0000   
         H         H         1.0       0.9025668581691441  0.2072750643606192  0.5510431344647431 1.0000   
         H         H         1.0       0.9293743302860349  0.2313795870459679  0.5122179719195346 1.0000   
         H         H         1.0       0.9726260027545669  0.29671061935411086           0.9552625279843422 1.0000   
         H         H         1.0       0.9252097011404534  0.278075740891514   0.9692777982158413 1.0000   
         C         C         1.0       0.5972002768371033  0.8708271625391499  0.7470771661799046 1.0000   
         C         C         1.0       0.5733275781651196  0.8572935198090971  0.7295115671538762 1.0000   
         C         C         1.0       0.5741260719136559  0.8687399747687938  0.7050932293298791 1.0000   
         C         C         1.0       0.5983419576245821  0.8950788430747134  0.6972437835889829 1.0000   
         C         C         1.0       0.6220568941548167  0.9079532818472157  0.7149406550940831 1.0000   
         C         C         1.0       0.6227259259966059  0.8960669206431915  0.7393081320462199 1.0000   
         H         H         1.0       0.5533632732659561  0.8381855011676564  0.7362079120319515 1.0000   
         H         H         1.0       0.5553033665295614  0.8570767081287912  0.6926585668928051 1.0000   
         H         H         1.0       0.6386774377638811  0.928306470060115   0.7099384878394613 1.0000   
         H         H         1.0       0.6408386628126573  0.9084754196891642  0.7538037878773012 1.0000   
         C         C         1.0       0.6062619053043828  0.953195591131567   0.6915860041477049 1.0000   
         C         C         1.0       0.5991824599915903  0.9374268226459822  0.6672114060342976 1.0000   
         C         C         1.0       0.5951613184253337  0.9501162617348091  0.6440363254509657 1.0000   
         C         C         1.0       0.6017169906061106  0.9780219252641902  0.6440594508629007 1.0000   
         C         C         1.0       0.6135970803089166  0.9941542618310747  0.6674688197311367 1.0000   
         C         C         1.0       0.6134403471242151  0.9805387944092377  0.691240223201591  1.0000   
         C         C         1.0       0.6014115150166788  0.9098070420781021  0.666410632715658  1.0000   
         C         C         1.0       0.5751085345890091  0.8879422187907122  0.6475324144876486 1.0000   
         C         C         1.0       0.578749724751702   0.8803475586032671  0.6216927980239817 1.0000   
         C         C         1.0       0.5572175973227365  0.868420241780481   0.6030433017411474 1.0000   
         C         C         1.0       0.5318423343007347  0.8666385736611183  0.6096657134148241 1.0000   
         C         C         1.0       0.5259264293342041  0.8724225389575092  0.6358158646174127 1.0000   
         C         C         1.0       0.5483202854064437  0.8841698561154538  0.6538657584767424 1.0000   
         C         C         1.0       0.6532929999853084  0.9423399914210663  0.6439301557009022 1.0000   
         C         C         1.0       0.6803943755081793  0.9485820562791522  0.6364402833358512 1.0000   
         C         C         1.0       0.6869130027262833  0.9275862682196702  0.6353804388315991 1.0000   
         C         C         1.0       0.663590678512371   0.9000905675462326  0.6447571542489395 1.0000   
         C         C         1.0       0.6376247355997419  0.8945960379600124  0.6531110407212366 1.0000   
         C         C         1.0       0.6323836016347582  0.9171592628781909  0.6541774443813125 1.0000   
         C         C         1.0       0.7161929231297123  0.9315262247545126  0.6209687928869653 1.0000   
         C         C         1.0       0.781588554930781   0.020839248828385722         0.6106292928092323 1.0000   
         C         C         1.0       0.7674754075425401  0.010320254175225863         0.6351300182436624 1.0000   
         C         C         1.0       0.7494301342717579  0.9825143149848408  0.6387016126574355 1.0000   
         C         C         1.0       0.742261275631491   0.9632523141902165  0.6170664346021852 1.0000   
         C         C         1.0       0.8112023222013531  0.05709410953903449           0.022164239748339476         1.0000   
         C         C         1.0       0.8259978372264718  0.0860905101701619  0.01925604377626633          1.0000   
         C         C         1.0       0.7664567314591112  0.9947078704483924  0.026694112075614562         1.0000   
         C         C         1.0       0.7660997477011806  0.9701696174282638  0.01796628260743316          1.0000   
         C         C         1.0       0.7518135754536991  0.9553729091775285  0.9953610673081297 1.0000   
         C         C         1.0       0.7341397893960453  0.9616933451467115  0.9816765095295823 1.0000   
         C         C         1.0       0.7315724434286883  0.9839952102156857  0.9906637036945917 1.0000   
         C         C         1.0       0.7471005407825042  0.0005205905065366334        0.0128546161419556 1.0000   
         C         C         1.0       0.7472747172444386  0.9113963196818347  0.6256922593783315 1.0000   
         C         C         1.0       0.7624253653977354  0.9026720272092831  0.6398300718723241 1.0000   
         C         C         1.0       0.756988352338193   0.8967852487536326  0.6670527584305141 1.0000   
         C         C         1.0       0.7383893884914398  0.9019253891390345  0.6811822055642693 1.0000   
         C         C         1.0       0.7243142711199063  0.9122905889886173  0.6668364536808455 1.0000   
         C         C         1.0       0.7299003278787274  0.9190706247277881  0.6386637805648535 1.0000   
         H         H         1.0       0.610305390565428   0.9468519804002823  0.7111583362019692 1.0000   
         H         H         1.0       0.5856241660119522  0.9381134963750085  0.6263314767523245 1.0000   
         H         H         1.0       0.5964712217586148  0.9850285918332066  0.6246964782765578 1.0000   
         H         H         1.0       0.62162838687338    0.992382222609566   0.7095559682549436 1.0000   
         H         H         1.0       0.5994886860133964  0.8853622062480554  0.6130700203873577 1.0000   
         H         H         1.0       0.559597456786898   0.8641195521299854  0.5811693950405966 1.0000   
         H         H         1.0       0.5059481873719214  0.8717719351675347  0.6406080583164937 1.0000   
         H         H         1.0       0.544617382274145   0.8920719688551908  0.6733838361444657 1.0000   
         H         H         1.0       0.6509381399995282  0.9596998681412907  0.641227976922214  1.0000   
         H         H         1.0       0.6952416918324891  0.9689570701715832  0.6267480400079258 1.0000   
         H         H         1.0       0.6666942909179876  0.8817576294739443  0.644671785803321  1.0000   
         H         H         1.0       0.6215450984020008  0.873767127666862   0.6596334997914214 1.0000   
         H         H         1.0       0.7691214589092246  0.022964698033412834         0.651271057990671  1.0000   
         H         H         1.0       0.7369393071038995  0.9755801853840604  0.6592106433361674 1.0000   
         H         H         1.0       0.8041584915767114  0.04413839455756552           0.004414938065055107         1.0000   
         H         H         1.0       0.8310226912547748  0.0957482025459737  0.9978215128204453 1.0000   
         H         H         1.0       0.7768899977648459  0.961459256080722   0.027030486632615425         1.0000   
         H         H         1.0       0.755321166437769   0.9396460749071974  0.9868142429342966 1.0000   
         H         H         1.0       0.7179958486176675  0.9903093040731797  0.9806718117361146 1.0000   
         H         H         1.0       0.7443656836627206  0.01772635323780558           0.020594698322723426         1.0000   
         H         H         1.0       0.7541096748365963  0.9171984830618509  0.604914225493758  1.0000   
         H         H         1.0       0.773371844395296   0.8950788453352803  0.6261250349862435 1.0000   
         H         H         1.0       0.7371768860461794  0.8995359500506277  0.703825224691692  1.0000   
         H         H         1.0       0.7097192420796766  0.9163935385910457  0.6763945991450258 1.0000   
         C         C         1.0       0.7264071833711927  0.983242179065946   0.9215194920329889 1.0000   
         C         C         1.0       0.6996384297733285  0.9802675624794124  0.92478361615407   1.0000   
         C         C         1.0       0.6945222220988599  0.0003638388762798872        0.9151402605800735 1.0000   
         C         C         1.0       0.7172839217317383  0.025327520029861716         0.9036160636141958 1.0000   
         C         C         1.0       0.7424202287036601  0.026524616709191262         0.89571228470518   1.0000   
         C         C         1.0       0.747640956660163   0.0058969793448611085        0.9053190787447135 1.0000   
         H         H         1.0       0.6822451175704272  0.9621739683348425  0.9338738823334071 1.0000   
         H         H         1.0       0.672973340384417   0.9960861487809696  0.9188925558907376 1.0000   
         H         H         1.0       0.7574835912873832  0.0425718986314354  0.8829872233544525 1.0000   
         H         H         1.0       0.7671343267044674  0.007057021284793574         0.9012538825838343 1.0000   
         C         C         1.0       0.7648865131776381  0.08985286237878445           0.9080056231941892 1.0000   
         C         C         1.0       0.7413038102100284  0.08145654542404435           0.8915524307538334 1.0000   
         C         C         1.0       0.7429879925457216  0.09858013759793448           0.8711079911697088 1.0000   
         C         C         1.0       0.7687973709525087  0.11972295437273817           0.8622035843987093 1.0000   
         C         C         1.0       0.7931348466862824  0.12655613770074306           0.8760310779688724 1.0000   
         C         C         1.0       0.7921474390666053  0.11381214640622385           0.9002929923802613 1.0000   
         C         C         1.0       0.7106718624938693  0.04970817151057738           0.8949012915427039 1.0000   
         C         C         1.0       0.6946580588340083  0.058711709663068046         0.9161266282091177 1.0000   
         C         C         1.0       0.677073366976483   0.0675654628666773  0.9063891427211392 1.0000   
         C         C         1.0       0.6617243697171239  0.07334889902861863           0.924455862126845  1.0000   
         C         C         1.0       0.6579690000374496  0.06458215084714514           0.9515340727378582 1.0000   
         C         C         1.0       0.6754154269628547  0.055782337125929615         0.9615744084826812 1.0000   
         C         C         1.0       0.6920932432226095  0.051510749018909285         0.9441463085070608 1.0000   
         C         C         1.0       0.7092764982850627  0.03742458859558018           0.8438364725118894 1.0000   
         C         C         1.0       0.6966758779254129  0.023554904511586594         0.8199707788395031 1.0000   
         C         C         1.0       0.6667662743856079  0.0059277685436061045        0.819124974443191  1.0000   
         C         C         1.0       0.6513385500081922  0.005297181533530537         0.842432114187739  1.0000   
         C         C         1.0       0.6634681566423193  0.018027762234733347         0.8653762251533362 1.0000   
         C         C         1.0       0.6933161472422668  0.03555166463065307           0.8677514537494359 1.0000   
         C         C         1.0       0.6518072893414949  0.9886375930032842  0.7914665543221322 1.0000   
         C         C         1.0       0.6628989448129817  0.06916248580548512           0.7787070966607574 1.0000   
         C         C         1.0       0.6778780474276573  0.061777739735305426         0.7609535309880466 1.0000   
         C         C         1.0       0.6732564629225214  0.03480135012116037           0.7617000271389976 1.0000   
         C         C         1.0       0.6500714078715054  0.013718113345695393         0.7765395579663358 1.0000   
         C         C         1.0       0.629874703787492   0.018282427140410284         0.7881627699654129 1.0000   
         C         C         1.0       0.6386048378207877  0.04681150934355106           0.7918506156545698 1.0000   
         C         C         1.0       0.6228835107317907  0.9599396889668635  0.796245691552891  1.0000   
         C         C         1.0       0.6176297789320664  0.9418520987652004  0.8190442836690889 1.0000   
         C         C         1.0       0.5953063585378426  0.9137617794684725  0.8181437376280497 1.0000   
         C         C         1.0       0.5808696871217294  0.9027575896176131  0.7940368035334752 1.0000   
         C         C         1.0       0.5820606852267586  0.9202356577883943  0.7734235725249711 1.0000   
         C         C         1.0       0.6028435125847463  0.9491961725195432  0.7756370943892196 1.0000   
         C         C         1.0       0.6741993313628312  0.976151584488045   0.7485596879575552 1.0000   
         C         C         1.0       0.6926387971661331  0.9683926447299489  0.7381552874468773 1.0000   
         C         C         1.0       0.70530504371966    0.9593490197544635  0.7552403349075792 1.0000   
         C         C         1.0       0.7003177410092144  0.9574754614373374  0.7836019219971018 1.0000   
         C         C         1.0       0.6836565201732436  0.967310525153283   0.7930890815730213 1.0000   
         C         C         1.0       0.6709706610800964  0.9781327139780671  0.7764696130118431 1.0000   
         H         H         1.0       0.7632927573779631  0.07980782316944524           0.9269949039810798 1.0000   
         H         H         1.0       0.7247354938308782  0.09445864277245095           0.8588080389138322 1.0000   
         H         H         1.0       0.7678933248446046  0.12787784195273166           0.8436294962379908 1.0000   
         H         H         1.0       0.8110976402397652  0.1198982933657564  0.9131006012687369 1.0000   
         H         H         1.0       0.6752798566482593  0.06846186392205955           0.883649178146855  1.0000   
         H         H         1.0       0.647374262023761   0.07971097397668525           0.9165500398708903 1.0000   
         H         H         1.0       0.6710847876387547  0.04610845742525349           0.9818965613420865 1.0000   
         H         H         1.0       0.7055015279260834  0.043930789016352056         0.9502221257336536 1.0000   
         H         H         1.0       0.7321381149820532  0.046553674801976364         0.8466825567466042 1.0000   
         H         H         1.0       0.7093665414224669  0.02562255925096224           0.8033691042147699 1.0000   
         H         H         1.0       0.6280604585747678  0.9921045163261609  0.842825290122881  1.0000   
         H         H         1.0       0.6494897055321464  0.013912360641973098         0.8823710369194502 1.0000   
         H         H         1.0       0.6986409660358137  0.08015955598067508           0.7533808445477749 1.0000   
         H         H         1.0       0.6890654666011133  0.030586750235309657         0.75381418955741   1.0000   
         H         H         1.0       0.6121282103402911  0.0014500134681594279        0.7999253437407368 1.0000   
         H         H         1.0       0.626719260648376   0.05087600162436812           0.8081881407422848 1.0000   
         H         H         1.0       0.6330712462471089  0.9477839329716815  0.8353509999082802 1.0000   
         H         H         1.0       0.5931480705669291  0.8999123556951566  0.8347080587110071 1.0000   
         H         H         1.0       0.5719123787919955  0.9149989808812738  0.7547881947624565 1.0000   
         H         H         1.0       0.6065471471397548  0.9645844322847916  0.759079595441985  1.0000   
         H         H         1.0       0.6676356388685947  0.9863787784503701  0.7338171823240991 1.0000   
         H         H         1.0       0.6958439756547027  0.9662383315241767  0.7178651667452821 1.0000   
         H         H         1.0       0.7101358901939213  0.9502755984063538  0.7967277350988026 1.0000   
         H         H         1.0       0.6813620837335312  0.9665359776070366  0.8150464569028538 1.0000   
         C         C         1.0       0.36359989426236283           0.8950569565756389 0.5693592604171163 1.0000   
         C         C         1.0       0.37798084204412186           0.8810586546911895 0.5774769958712523 1.0000   
         C         C         1.0       0.4055247224334803  0.8963778825202542  0.587421170175217  1.0000   
         C         C         1.0       0.42059565690345496           0.9258647905841972 0.5891432551760099 1.0000   
         C         C         1.0       0.4071595100019369  0.9394492695097989  0.5815393025548729 1.0000   
         C         C         1.0       0.37902931582998867           0.9244247529670692 0.5724970083879016 1.0000   
         H         H         1.0       0.367047575626577   0.858462136752915   0.5780028736721825 1.0000   
         H         H         1.0       0.4154149416109756  0.8844522945845642  0.5905610291415958 1.0000   
         H         H         1.0       0.41858743011960253           0.9622497582812278 0.5842786692823327 1.0000   
         H         H         1.0       0.3678293382976322  0.9346618480483245  0.5667107489899276 1.0000   
         C         C         1.0       0.4738378857747263  0.9830654551587714  0.5671530558599429 1.0000   
         C         C         1.0       0.4754573383362857  0.9736986660246825  0.5925993156661744 1.0000   
         C         C         1.0       0.4978615840727946  0.9921366869947712  0.6094861632628877 1.0000   
         C         C         1.0       0.515392640220385   0.02149511015988015           0.6019678832279377 1.0000   
         C         C         1.0       0.5113793763589327  0.031459080338716916         0.5782870504892441 1.0000   
         C         C         1.0       0.49005418743459833           0.012348149629379579         0.5611107355029005 1.0000   
         C         C         1.0       0.4520796832797457  0.9419657161781156  0.6019244887794805 1.0000   
         C         C         1.0       0.47125845099441455           0.927857502225526  0.5956536298065886 1.0000   
         C         C         1.0       0.4896536604322906  0.9285012709391672  0.6140610028017963 1.0000   
         C         C         1.0       0.5060638741393355  0.9166962576467316  0.606700245513081  1.0000   
         C         C         1.0       0.5010967949851185  0.9025320416450111  0.5810482770267251 1.0000   
         C         C         1.0       0.48080990758898645           0.9010609672336748 0.5633031229938974 1.0000   
         C         C         1.0       0.4679782704344066  0.9161598448900956  0.5691731278668528 1.0000   
         C         C         1.0       0.44425779356119743           0.9626675644072619 0.6464165905478354 1.0000   
         C         C         1.0       0.43608252572392203           0.9604321411892911 0.6730064124330419 1.0000   
         C         C         1.0       0.4280404703036361  0.9372751726152008  0.6893174090937466 1.0000   
         C         C         1.0       0.425256158474142   0.9131438592102515  0.6761112631410398 1.0000   
         C         C         1.0       0.43242600626363437           0.9138520536508188 0.6495405184566689 1.0000   
         C         C         1.0       0.44230981210447856           0.9393846227150779 0.6337842369129172 1.0000   
         C         C         1.0       0.41777701106311493           0.9361018260831538 0.7222422397505357 1.0000   
         C         C         1.0       0.4189244060228938  0.010882277388058133         0.752243978864602  1.0000   
         C         C         1.0       0.4003445928357169  0.9946789880361059  0.7319339257909704 1.0000   
         C         C         1.0       0.40120953260318776           0.9719794823409081 0.7219200034990068 1.0000   
         C         C         1.0       0.41805491041244613           0.9634084527270065 0.7331039871175085 1.0000   
         C         C         1.0       0.43311635346886906           0.9780309560885209 0.7566251640514765 1.0000   
         C         C         1.0       0.43434497616443074           0.0019401089334629693        0.7659120353849872 1.0000   
         C         C         1.0       0.4418057865302613  0.9322831920229065  0.7371797517365456 1.0000   
         C         C         1.0       0.4373405571551809  0.9078671274482009  0.751957387915765  1.0000   
         C         C         1.0       0.45993157814482105           0.9076809277233735 0.7639613548373786 1.0000   
         C         C         1.0       0.48867230213401863           0.9293698364093667 0.7579749747615887 1.0000   
         C         C         1.0       0.49316879051151863           0.9523612416298562 0.7421558886135253 1.0000   
         C         C         1.0       0.47052785525661955           0.953674072052972  0.7317407753935452 1.0000   
         C         C         1.0       0.37231464218489657           0.9040764525472058 0.7513848102045616 1.0000   
         C         C         1.0       0.342701607479307   0.8876247905480391  0.7554669948728181 1.0000   
         C         C         1.0       0.3246036578815093  0.8774512934403369  0.7335637155708624 1.0000   
         C         C         1.0       0.33572543955720424           0.8829827194373029 0.706872661227303  1.0000   
         C         C         1.0       0.3645110347234161  0.8994882972709782  0.7029559226971531 1.0000   
         C         C         1.0       0.3842096887742302  0.9108456316212582  0.7248256737784322 1.0000   
         H         H         1.0       0.5130734061498295  0.02185781726755609           0.99782822154864   1.0000   
         H         H         1.0       0.5009350305013031  0.9838969532645818  0.6275836426483627 1.0000   
         H         H         1.0       0.5320284877501523  0.03610978657835018           0.6162877027438475 1.0000   
         H         H         1.0       0.5371812078566489  0.07100825500348582           0.9827203332513219 1.0000   
         H         H         1.0       0.4949754590060746  0.9404628047518344  0.6331356864606132 1.0000   
         H         H         1.0       0.5243150676327083  0.9222264188272121  0.6182433045681673 1.0000   
         H         H         1.0       0.5459510692201371  0.9596385051539351  0.0003685505888444407        1.0000   
         H         H         1.0       0.45021359295699126           0.912646591145911  0.5561113103532579 1.0000   
         H         H         1.0       0.4474103942583654  0.9803035618010125  0.6344577943768775 1.0000   
         H         H         1.0       0.43537067094725546           0.9785583504242163 0.6802419812536281 1.0000   
         H         H         1.0       0.4177668941737689  0.8942383704683897  0.6897036053246207 1.0000   
         H         H         1.0       0.4295693719893078  0.8947537851928179  0.6411091113778222 1.0000   
         H         H         1.0       0.38502590912771373           0.9989684689310506 0.7242863843754435 1.0000   
         H         H         1.0       0.3878439214060783  0.9607005937197758  0.704383846533634  1.0000   
         H         H         1.0       0.4444265897823795  0.9705531186325936  0.7692396469053898 1.0000   
         H         H         1.0       0.4439645345121089  0.010929717209706702         0.7849777846620746 1.0000   
         H         H         1.0       0.41531169816556535           0.8887471523203692 0.7561114079518033 1.0000   
         H         H         1.0       0.455393511613003   0.8885943245737061  0.7744529823261875 1.0000   
         H         H         1.0       0.5138421054849778  0.9653459062607925  0.73558795582499   1.0000   
         H         H         1.0       0.47637240432758965           0.9730261475965761 0.72041951326505   1.0000   
         H         H         1.0       0.38637453316900044           0.910445147749897  0.768679194038019  1.0000   
         H         H         1.0       0.3353107837950808  0.8843132634107311  0.7774726735081797 1.0000   
         H         H         1.0       0.3238357260386932  0.8772011532078624  0.6880238161820964 1.0000   
         H         H         1.0       0.3692502536146727  0.9094083926415353  0.6826375191864096 1.0000   
         C         C         1.0       0.5296095334981135  0.9482153561531937  0.8137463300059637 1.0000   
         C         C         1.0       0.5213534122234963  0.9438350764554144  0.8412740370406787 1.0000   
         C         C         1.0       0.5302358103261982  0.96654354467536    0.8595208483070541 1.0000   
         C         C         1.0       0.546043143774304   0.995328330697952   0.8500126363242739 1.0000   
         C         C         1.0       0.55356143112634    0.9996016849209753  0.8229265801542126 1.0000   
         C         C         1.0       0.5455064352823641  0.9762975697226352  0.8048270105248443 1.0000   
         H         H         1.0       0.5105801285289151  0.9226550620330023  0.8489540440418717 1.0000   
         H         H         1.0       0.5247503904273264  0.9637274700582074  0.8818622772376419 1.0000   
         H         H         1.0       0.5633562772580479  0.02029971835237654           0.8126611641829714 1.0000   
         H         H         1.0       0.5496983725334478  0.9809522382453667  0.7826981593149269 1.0000   
         C         C         1.0       0.5988896742108728  0.05965580002302717           0.8503213346617964 1.0000   
         C         C         1.0       0.5703299184937344  0.05125057792402332           0.8562312035512584 1.0000   
         C         C         1.0       0.5617301094894049  0.07053529626620136           0.8580288478819788 1.0000   
         C         C         1.0       0.5818556949913749  0.09905743137319682           0.8539346244516763 1.0000   
         C         C         1.0       0.6095344299988085  0.10756518393820995           0.8467161726877829 1.0000   
         C         C         1.0       0.6178955493461413  0.08877119045413967           0.8467877600948567 1.0000   
         C         C         1.0       0.5487468140913676  0.01966338457150152           0.869125786771732  1.0000   
         C         C         1.0       0.562423494006091   0.02180293897032559           0.8987484780858281 1.0000   
         C         C         1.0       0.5622126481410065  0.03966316218917343           0.918002637343584  1.0000   
         C         C         1.0       0.5734734587509634  0.04370469206334282           0.9433083865923128 1.0000   
         C         C         1.0       0.5900988396359742  0.0330052043463267  0.9492675676621649 1.0000   
         C         C         1.0       0.5915342196792998  0.014469276399860842         0.930272991859271  1.0000   
         C         C         1.0       0.5772680285503314  0.008719687313851976         0.9059968837844119 1.0000   
         C         C         1.0       0.5013983154345915  0.011263866682002632         0.8496412837643762 1.0000   
         C         C         1.0       0.47396232146480616           0.006076595498336612         0.8508402084356794 1.0000   
         C         C         1.0       0.45939969621027116           0.9997617425241362 0.8754762448870854 1.0000   
         C         C         1.0       0.47128269837404224           0.9942695224620717 0.8969712805763803 1.0000   
         C         C         1.0       0.49994105894589486           0.0010515595287317048        0.8961808348182798 1.0000   
         C         C         1.0       0.5147293380121223  0.009037931206657301         0.8723796318055849 1.0000   
         C         C         1.0       0.4310109072515163  0.00022337091899848893       0.8793526359184566 1.0000   
         C         C         1.0       0.4751137533388136  0.09166094616965186           0.8855139590712279 1.0000   
         C         C         1.0       0.46325675642484615           0.07822473801672536          0.860795203541895  1.0000   
         C         C         1.0       0.4493724454901211  0.049112844586306936         0.8595726912802135 1.0000   
         C         C         1.0       0.44758074363822625           0.03306713346687751          0.8822471901459413 1.0000   
         C         C         1.0       0.4610738592032877  0.04683501918392263           0.9063707225475298 1.0000   
         C         C         1.0       0.4746962923621175  0.07585681440114332           0.9080373423485837 1.0000   
         C         C         1.0       0.4105706768119629  0.9810648721899948  0.9050605139010197 1.0000   
         C         C         1.0       0.4023508855078649  0.9532623387766568  0.9087852437219512 1.0000   
         C         C         1.0       0.38804721915909024           0.937270383256671  0.9315938406319697 1.0000   
         C         C         1.0       0.38276051785617626           0.9499978757026809 0.953790028062885  1.0000   
         C         C         1.0       0.3886354496948664  0.9774557873239806  0.9500727424270086 1.0000   
         C         C         1.0       0.39992677894341333           0.9918738843258961 0.9255805389050771 1.0000   
         C         C         1.0       0.3857630322234625  0.994326845445189   0.8550973134623722 1.0000   
         C         C         1.0       0.3642644375009161  0.9836391664074156  0.8358137755737153 1.0000   
         C         C         1.0       0.36436727705390204           0.9667706010061528 0.8142011224758786 1.0000   
         C         C         1.0       0.3825133129618277  0.9568940074622092  0.817013535142358  1.0000   
         C         C         1.0       0.40358782680189675           0.9675901625510243 0.8370662660985987 1.0000   
         C         C         1.0       0.40501630556446583           0.9857054226378403 0.8571255491318606 1.0000   
         H         H         1.0       0.6052473100844682  0.04461448910878474           0.850367751486644  1.0000   
         H         H         1.0       0.5411093685841045  0.06437895520202574           0.8663611008059375 1.0000   
         H         H         1.0       0.5759539757842123  0.11399759250180842           0.8561516305697524 1.0000   
         H         H         1.0       0.6412503143247975  0.09626898183248178           0.8441639527053404 1.0000   
         H         H         1.0       0.5529505703237709  0.05247352107490366           0.9126970447982933 1.0000   
         H         H         1.0       0.5729417685436697  0.058505097370914916         0.958897817563796  1.0000   
         H         H         1.0       0.6048075754574993  0.0069247991905287964        0.9350157213178388 1.0000   
         H         H         1.0       0.5756308559686183  0.9920580636913151  0.8918203769481412 1.0000   
         H         H         1.0       0.5112513368751826  0.016724226725945757         0.8293064739322389 1.0000   
         H         H         1.0       0.4668317432476651  0.011150999850681131         0.8336828809513931 1.0000   
         H         H         1.0       0.4616944079069125  0.9897175882526995  0.9161323358255606 1.0000   
         H         H         1.0       0.5091988311328127  0.9985455550611707  0.914343065860653  1.0000   
         H         H         1.0       0.46447312300590704           0.08918957028663962          0.8425567894932897 1.0000   
         H         H         1.0       0.4426765840592085  0.040184554054596866         0.8394787767161482 1.0000   
         H         H         1.0       0.4619761085966939  0.03595421345321026           0.9242191601214137 1.0000   
         H         H         1.0       0.48639441968561103           0.08630308813118479          0.9291745157816136 1.0000   
         H         H         1.0       0.40912010527709025           0.9435705964190804 0.8937325167571043 1.0000   
         H         H         1.0       0.3819766490914018  0.9155911561736122  0.9328175241529902 1.0000   
         H         H         1.0       0.3835534010785887  0.9880777691366951  0.9664787634938835 1.0000   
         H         H         1.0       0.4049942129924278  0.01334676293011916           0.925744362724822  1.0000   
         H         H         1.0       0.3890267853585389  0.01046580813772402           0.8699312739934348 1.0000   
         H         H         1.0       0.3487050581129101  0.9882663337664331  0.8359621964933034 1.0000   
         H         H         1.0       0.37786113943957406           0.9390195316003901 0.8034957616850714 1.0000   
         H         H         1.0       0.41791651889460957           0.9596738390696818 0.8352855906098527 1.0000   
         C         C         1.0       0.810930529242966   0.6748722019294731  0.7551550614992165 1.0000   
         C         C         1.0       0.7911994591802063  0.6457892228454077  0.7538204528418995 1.0000   
         C         C         1.0       0.7631890770186353  0.6350920010220401  0.7457410160094788 1.0000   
         C         C         1.0       0.7524710995288387  0.652459514450751   0.7427047409876417 1.0000   
         C         C         1.0       0.7720521074187734  0.681197468369943   0.7472770477950427 1.0000   
         C         C         1.0       0.8007490912754949  0.6920250140790503  0.7552734909232035 1.0000   
         H         H         1.0       0.7990010631851563  0.63205694918204    0.7539202353570736 1.0000   
         H         H         1.0       0.7519465580035488  0.6131594365203572  0.7386222021247388 1.0000   
         H         H         1.0       0.767953318027009   0.697691916074254   0.7425537140233143 1.0000   
         H         H         1.0       0.8145492748427472  0.7140898923957388  0.7587373397854635 1.0000   
         C         C         1.0       0.7098294345531797  0.6686583359173871  0.7626016167937102 1.0000   
         C         C         1.0       0.7084648665673405  0.6582474384985074  0.7353048685339943 1.0000   
         C         C         1.0       0.6957376268581633  0.6650278472708181  0.715692572627457  1.0000   
         C         C         1.0       0.6830406120278003  0.680605855560079   0.7224133343935516 1.0000   
         C         C         1.0       0.68267032105234    0.6883516620084452  0.7492742274498828 1.0000   
         C         C         1.0       0.6969954340767717  0.6839038578884935  0.7692406170758712 1.0000   
         C         C         1.0       0.722283935429007   0.6401532558144138  0.7271063890839301 1.0000   
         C         C         1.0       0.6955592974936357  0.6086650588717304  0.7336509550083863 1.0000   
         C         C         1.0       0.6718940740901059  0.596924384003442   0.7152499779930649 1.0000   
         C         C         1.0       0.649357744738568   0.5699324681366564  0.7192503889256825 1.0000   
         C         C         1.0       0.6470985127591231  0.554284158105024   0.7419515312511901 1.0000   
         C         C         1.0       0.6691962120563415  0.5656672001570717  0.7598000307534327 1.0000   
         C         C         1.0       0.6933191382491354  0.5928369396081534  0.7570487135830954 1.0000   
         C         C         1.0       0.7486543253368217  0.6712444311959662  0.6815968772468068 1.0000   
         C         C         1.0       0.7561352083632596  0.6727160389756495  0.6544196033672574 1.0000   
         C         C         1.0       0.7537036686280725  0.6496520706505549  0.6406505482652426 1.0000   
         C         C         1.0       0.7438840906539327  0.6246685729765378  0.6558101240597236 1.0000   
         C         C         1.0       0.7353842925439423  0.6233369515737327  0.6825701568122583 1.0000   
         C         C         1.0       0.7361155718094117  0.6457997534922977  0.6966996611338915 1.0000   
         C         C         1.0       0.7542392812825262  0.6469810830853543  0.6068854438780295 1.0000   
         C         C         1.0       0.6668799173615874  0.6323275685227598  0.6109895157997273 1.0000   
         C         C         1.0       0.6902729669415455  0.6577596167606151  0.6022006190122692 1.0000   
         C         C         1.0       0.7170286890712735  0.6615732799845352  0.5977930014517515 1.0000   
         C         C         1.0       0.7218139307883933  0.6390415576270604  0.6018131504106655 1.0000   
         C         C         1.0       0.6972229932644731  0.6122522744992233  0.6075208489248606 1.0000   
         C         C         1.0       0.6702618847884405  0.6096621801663662  0.6129257620900374 1.0000   
         C         C         1.0       0.760350496989097   0.6229209542559765  0.5976980328109105 1.0000   
         C         C         1.0       0.7836137583550269  0.6240772429758371  0.6091756458531571 1.0000   
         C         C         1.0       0.7928659092640171  0.6067494112640738  0.5993679081181387 1.0000   
         C         C         1.0       0.7758939171365231  0.585365553391831   0.5807175856966038 1.0000   
         C         C         1.0       0.7529817765177931  0.5838995997453488  0.5694134094788206 1.0000   
         C         C         1.0       0.7447566644957734  0.601293331776386   0.5783450983937777 1.0000   
         C         C         1.0       0.7791687537059058  0.6790636793119452  0.5642849259079014 1.0000   
         C         C         1.0       0.8004357808656055  0.7016125262350588  0.5499172129409868 1.0000   
         C         C         1.0       0.8258017829699912  0.7179137316753379  0.5637618783507462 1.0000   
         C         C         1.0       0.8274749097770265  0.714101161906004   0.5917474692803543 1.0000   
         C         C         1.0       0.8055652858149801  0.6919227985003181  0.6053986631948239 1.0000   
         C         C         1.0       0.7798450654190828  0.6747051996150132  0.592196348127466  1.0000   
         H         H         1.0       0.7197282073419852  0.6624720877200255  0.7772915166598673 1.0000   
         H         H         1.0       0.696265499159024   0.6607328662317116  0.6933131053151544 1.0000   
         H         H         1.0       0.6749800445327362  0.6869988118136678  0.7060042711978628 1.0000   
         H         H         1.0       0.6975004502782935  0.6917567906811519  0.7895782520048175 1.0000   
         H         H         1.0       0.6721931264160933  0.6103593030256472  0.6990778559447255 1.0000   
         H         H         1.0       0.6300209229245998  0.5594781880227934  0.7072628842235449 1.0000   
         H         H         1.0       0.6681613135048169  0.5537646103178159  0.7784336645261737 1.0000   
         H         H         1.0       0.7120637634135002  0.6008013570314171  0.7724750119866186 1.0000   
         H         H         1.0       0.750055398126826   0.6897799835325544  0.6900788147815424 1.0000   
         H         H         1.0       0.7662459203601565  0.6948735585268063  0.6463619050441485 1.0000   
         H         H         1.0       0.7445386680140917  0.6077831769743237  0.6475046842952112 1.0000   
         H         H         1.0       0.7258321730802688  0.6023148914398818  0.6915956249730195 1.0000   
         H         H         1.0       0.6871860112197673  0.6739079468468306  0.595652782459009  1.0000   
         H         H         1.0       0.7333198823876675  0.6812599719841782  0.5897042174129574 1.0000   
         H         H         1.0       0.699477402242718   0.5950862411744059  0.6126142328893539 1.0000   
         H         H         1.0       0.6533445928967402  0.588710961367388   0.6212023943480848 1.0000   
         H         H         1.0       0.7981454979332254  0.6421425949704656  0.621464678887025  1.0000   
         H         H         1.0       0.8127398599435852  0.6090087239484107  0.6054890592023092 1.0000   
         H         H         1.0       0.7440004730997882  0.5713183262534633  0.550388944201962  1.0000   
         H         H         1.0       0.7273887014098461  0.5997126491229806  0.5669233023848497 1.0000   
         H         H         1.0       0.7594889739941002  0.6630008272757159  0.5545852118967093 1.0000   
         H         H         1.0       0.7951302512482038  0.7026706546645453  0.5280676098301393 1.0000   
         H         H         1.0       0.8485027603351251  0.7270932017017704  0.6021358356616812 1.0000   
         H         H         1.0       0.8111750307260177  0.6889294776098978  0.6262148723470093 1.0000   
         C         C         1.0       0.8658084149582946  0.6760614521425635  0.0023733894257134125        1.0000   
         C         C         1.0       0.8418556613838089  0.6598840501995278  0.9864647711417343 1.0000   
         C         C         1.0       0.8286007362572869  0.6724738626773342  0.9752364808780775 1.0000   
         C         C         1.0       0.8384327338470509  0.7010508934912814  0.9821540667588489 1.0000   
         C         C         1.0       0.8621840955395412  0.7166675425887827  0.9983321945518994 1.0000   
         C         C         1.0       0.8752476990043256  0.7033130827113769  0.009420027955783894         1.0000   
         H         H         1.0       0.8328514351382854  0.6371959197689974  0.9818333552380063 1.0000   
         H         H         1.0       0.810977180113271   0.6589876473065917  0.9607229260577473 1.0000   
         H         H         1.0       0.8685926074368105  0.7384849178147538  0.004297095280924923         1.0000   
         H         H         1.0       0.892972945303728   0.7156148102217419  0.022644146949862165         1.0000   
         C         C         1.0       0.8123283811398042  0.723632787616805   0.027337029731236973         1.0000   
         C         C         1.0       0.8145987751835331  0.7309369041979707  0.9990884928194304 1.0000   
         C         C         1.0       0.8039848993715587  0.7486783923947977  0.9914070106263025 1.0000   
         C         C         1.0       0.7897685964810629  0.7558035792889289  0.009658718277078204         1.0000   
         C         C         1.0       0.7863601795926343  0.7465043078477934  0.036953314680612026         1.0000   
         C         C         1.0       0.8005426096621667  0.7333965597202565  0.04567086346847504          1.0000   
         C         C         1.0       0.8176663640739246  0.7123883772450892  0.9753495139110834 1.0000   
         C         C         1.0       0.7836892062806956  0.6871879948378714  0.9725045134917156 1.0000   
         C         C         1.0       0.7654774758594438  0.6874093739025833  0.9529293230941117 1.0000   
         C         C         1.0       0.7375326751504979  0.6643874320845954  0.950080562419513  1.0000   
         C         C         1.0       0.7270251361789692  0.6411177752241272  0.9682110885364426 1.0000   
         C         C         1.0       0.7435563037156879  0.6422377659819275  0.9891985293586392 1.0000   
         C         C         1.0       0.7707173802914477  0.6651037936218623  0.9923465678090087 1.0000   
         C         C         1.0       0.854698847987402   0.7571956631977057  0.9451219077477876 1.0000   
         C         C         1.0       0.867717833191348   0.768524451122229   0.9194344760480897 1.0000   
         C         C         1.0       0.8590342525359512  0.751676378300823   0.895437020703902  1.0000   
         C         C         1.0       0.8372061400901227  0.7236072041738331  0.8976336807703161 1.0000   
         C         C         1.0       0.8265083450931462  0.7125138136834781  0.9235546934451033 1.0000   
         C         C         1.0       0.8328442089890602  0.7273569904495689  0.947527409665294  1.0000   
         C         C         1.0       0.8703400726085763  0.76690131097798    0.866839585094406  1.0000   
         C         C         1.0       0.8167198319067389  0.8026085665183473  0.8575432218813493 1.0000   
         C         C         1.0       0.8438206557801684  0.8181014767681588  0.8691761817003669 1.0000   
         C         C         1.0       0.8603607768655294  0.8070718693546308  0.8708475506506975 1.0000   
         C         C         1.0       0.8506214540724768  0.7800177094882746  0.8624452635821646 1.0000   
         C         C         1.0       0.8231946532480198  0.7637307980547519  0.8533869399348353 1.0000   
         C         C         1.0       0.8056518821949403  0.7744757992235786  0.8515400367634222 1.0000   
         C         C         1.0       0.868403244677973   0.7459914268397816  0.842721955106989  1.0000   
         C         C         1.0       0.8734052036825131  0.7244058985343251  0.8468543756807944 1.0000   
         C         C         1.0       0.8703796017738996  0.7061000962296975  0.826604037681279  1.0000   
         C         C         1.0       0.8664831831183217  0.7119011281996732  0.7990024657688067 1.0000   
         C         C         1.0       0.8662963340469049  0.7364905883437266  0.7939587283484842 1.0000   
         C         C         1.0       0.8665331209259997  0.7523818618142454  0.8153094124215721 1.0000   
         C         C         1.0       0.9156064407326946  0.8112004971087131  0.8451712774888714 1.0000   
         C         C         1.0       0.9446469945864562  0.8302447507037808  0.8429375068581412 1.0000   
         C         C         1.0       0.9634823389597108  0.8275516313507868  0.8598260673158888 1.0000   
         C         C         1.0       0.9525993162673849  0.8070898016188844  0.880435749460638  1.0000   
         C         C         1.0       0.9232421701816478  0.7864298496973167  0.8814982337818229 1.0000   
         C         C         1.0       0.9042975991081046  0.7895907425829327  0.8651793260336396 1.0000   
         H         H         1.0       0.8207483019269373  0.7114980552370052  0.036608675547012304         1.0000   
         H         H         1.0       0.8018970037544435  0.752342165235878   0.9695643769067521 1.0000   
         H         H         1.0       0.774683676129274   0.7614570436870364  0.9993426199729467 1.0000   
         H         H         1.0       0.7983945825757381  0.7256430837852939  0.0675770869415675 1.0000   
         H         H         1.0       0.7733283892379476  0.7035441647551531  0.9374390672664124 1.0000   
         H         H         1.0       0.7248241687963941  0.6609267650789583  0.9319765043032672 1.0000   
         H         H         1.0       0.7384990245173924  0.6259084142267437  0.004005976919900789         1.0000   
         H         H         1.0       0.7832461468211132  0.6656878243368919  0.010304639606527166         1.0000   
         H         H         1.0       0.8616111490615698  0.7716774261819975  0.9616804185334037 1.0000   
         H         H         1.0       0.8831983079197931  0.7920351076648944  0.9170249667753025 1.0000   
         H         H         1.0       0.8269257716514551  0.7099455677714948  0.8806672917597692 1.0000   
         H         H         1.0       0.8087764468640654  0.6893076416221816  0.9242508086764977 1.0000   
         H         H         1.0       0.850761071003211   0.8396036179649989  0.8765719373952957 1.0000   
         H         H         1.0       0.8818083351312292  0.8197456792228492  0.8804860858367359 1.0000   
         H         H         1.0       0.8141060951694004  0.741625427903493   0.8476942829923386 1.0000   
         H         H         1.0       0.783286968576845   0.7604590600162734  0.846920211713592  1.0000   
         H         H         1.0       0.8751219679507765  0.7165484142642652  0.8671674393620041 1.0000   
         H         H         1.0       0.8715060360759536  0.6871164953737138  0.8317751707798329 1.0000   
         H         H         1.0       0.8656423094168196  0.7423378576918107  0.7722013995010382 1.0000   
         H         H         1.0       0.8644325982366378  0.77020910342376    0.8087571737565284 1.0000   
         H         H         1.0       0.9014249001274228  0.8097881721522606  0.8283961078552552 1.0000   
         H         H         1.0       0.9512534072349783  0.8468368990463966  0.8279627884931032 1.0000   
         H         H         1.0       0.966891527357445   0.8057203964882209  0.8936918591921615 1.0000   
         H         H         1.0       0.9158487277582464  0.7666535582241608  0.8926646613166151 1.0000   
         C         C         1.0       0.5324974430906761  0.3416922262006569  0.6374376689069873 1.0000   
         C         C         1.0       0.5505723751988159  0.3535771113786546  0.659985150769112  1.0000   
         C         C         1.0       0.5446671067553399  0.36706286684283657           0.680554720706112  1.0000   
         C         C         1.0       0.5215387305764363  0.3707220171880505  0.678281928111606  1.0000   
         C         C         1.0       0.503383085399821   0.35827832743944565           0.6564756782375901 1.0000   
         C         C         1.0       0.5086351782543298  0.34350320657762595           0.6370945410626293 1.0000   
         H         H         1.0       0.5711064558164243  0.35418810686963603           0.660771326109476  1.0000   
         H         H         1.0       0.560738549155669   0.3777111687443837  0.6962129151953313 1.0000   
         H         H         1.0       0.4817454610618396  0.35365754104107777           0.6578750267122295 1.0000   
         H         H         1.0       0.49752035436985964           0.3355839186781311 0.6185228471664495 1.0000   
         C         C         1.0       0.49692108111805844           0.4102074985146224 0.6674945690919066 1.0000   
         C         C         1.0       0.4948023192127274  0.3977920255736256  0.69247442172465   1.0000   
         C         C         1.0       0.47493976766597157           0.3980355903025092 0.7115538216176274 1.0000   
         C         C         1.0       0.45752314746218464           0.4069684990511018 0.7048470469658531 1.0000   
         C         C         1.0       0.45879842139980637           0.4170282676709602 0.6791622463568084 1.0000   
         C         C         1.0       0.47851053630097845           0.4190436775167482 0.6594994778953324 1.0000   
         C         C         1.0       0.5163761163507091  0.3885607307264103  0.7014297658151933 1.0000   
         C         C         1.0       0.5443158889677184  0.41982282167028384           0.7080376251024839 1.0000   
         C         C         1.0       0.5449239523900671  0.4350028377947759  0.7313340775989581 1.0000   
         C         C         1.0       0.5688163496842794  0.4596691326702175  0.7387577524826675 1.0000   
         C         C         1.0       0.5943759194710948  0.472510944922779   0.7228535699627446 1.0000   
         C         C         1.0       0.5931449354017805  0.45824874119039727           0.6991543170921896 1.0000   
         C         C         1.0       0.56925798302966    0.43307897741220786           0.691249473275808  1.0000   
         C         C         1.0       0.47841664912935766           0.3449754769568973 0.7271472671752587 1.0000   
         C         C         1.0       0.46620824433289576           0.3313944040197148 0.7524185494861828 1.0000   
         C         C         1.0       0.4812286108014515  0.340236292842668   0.7765390090073252 1.0000   
         C         C         1.0       0.5104111534363466  0.36109566491334366           0.7746073784826952 1.0000   
         C         C         1.0       0.5228950713220413  0.37427393274355086           0.7500208801019171 1.0000   
         C         C         1.0       0.5058136105060544  0.3678050541204945  0.7267708885759595 1.0000   
         C         C         1.0       0.4636388483816963  0.3310784205613116  0.8055658553796881 1.0000   
         C         C         1.0       0.4303866197495599  0.3878968331160684  0.7939040144246235 1.0000   
         C         C         1.0       0.4131747799719987  0.3589499247327219  0.79241083958612   1.0000   
         C         C         1.0       0.4230665556983901  0.3414484725735004  0.7955780322770996 1.0000   
         C         C         1.0       0.4506494442963184  0.3510024595029045  0.8046178037549085 1.0000   
         C         C         1.0       0.46840580702063644           0.3804396835702433 0.8079933937152163 1.0000   
         C         C         1.0       0.45784980492456306           0.39823524249014264          0.8016615680001373 1.0000   
         C         C         1.0       0.4823540811514244  0.3347039393184051  0.8304578382162221 1.0000   
         C         C         1.0       0.5006708995764391  0.3247691035172419  0.826140845469753  1.0000   
         C         C         1.0       0.5239424711068141  0.332027983178961   0.8431946154056997 1.0000   
         C         C         1.0       0.5298464531090178  0.35036020569958537           0.8642856955149404 1.0000   
         C         C         1.0       0.5092900035766438  0.3573468161063565  0.8712137580073386 1.0000   
         C         C         1.0       0.486682713864018   0.3498505303616796  0.8544250187051659 1.0000   
         C         C         1.0       0.41792579987072886           0.2880433208138007 0.8273311564099075 1.0000   
         C         C         1.0       0.398935911032657   0.2593243842318616  0.8319512505470481 1.0000   
         C         C         1.0       0.4019006216811611  0.24023306768861574           0.8164013637387083 1.0000   
         C         C         1.0       0.42319713496168165           0.2487415142966374 0.7958016838715095 1.0000   
         C         C         1.0       0.44308731471589574           0.27685986442101884          0.793831906833714  1.0000   
         C         C         1.0       0.4395198779683423  0.2972625061306599  0.8077663840019695 1.0000   
         H         H         1.0       0.5154682030786598  0.4177322907025244  0.6544375267456816 1.0000   
         H         H         1.0       0.47176072912717215           0.39190532719563254          0.7333139383958629 1.0000   
         H         H         1.0       0.44380696587031054           0.4074361712952924 0.7205227566321806 1.0000   
         H         H         1.0       0.4797102605198676  0.42715429630585017           0.6386514804138759 1.0000   
         H         H         1.0       0.526342397777315   0.4259130838639735  0.7444079895740512 1.0000   
         H         H         1.0       0.5659018797151364  0.47000050243353303           0.756037493909121  1.0000   
         H         H         1.0       0.6116383580504149  0.46560076299945974           0.6858269128464899 1.0000   
         H         H         1.0       0.567932987444112   0.42270559187558804           0.6718609032453225 1.0000   
         H         H         1.0       0.465718099412593   0.33719458039322825           0.7083424444584413 1.0000   
         H         H         1.0       0.44373467907266695           0.31505293257820194          0.7519630072782677 1.0000   
         H         H         1.0       0.5225807685323305  0.3711802701478794  0.7924980523907674 1.0000   
         H         H         1.0       0.5453547577290331  0.38871471240328725           0.7470387862037664 1.0000   
         H         H         1.0       0.3905775257432613  0.3509615919948008  0.7898902775493896 1.0000   
         H         H         1.0       0.4098833387361606  0.3191813117114933  0.790163608554632  1.0000   
         H         H         1.0       0.49050584010839404           0.3889822490818948 0.8148421382910159 1.0000   
         H         H         1.0       0.4717287548748843  0.42000465659217723           0.8082575042786472 1.0000   
         H         H         1.0       0.4987050481960822  0.31106061624917564           0.8097518753997371 1.0000   
         H         H         1.0       0.5375860763919788  0.3249660000325781  0.8363139041365134 1.0000   
         H         H         1.0       0.5157377582463896  0.37426019696331186           0.8865349355046828 1.0000   
         H         H         1.0       0.47378737256715125           0.35868736821448105          0.8593203718194391 1.0000   
         H         H         1.0       0.41550287456322765           0.30366261525977284          0.8400714550727666 1.0000   
         H         H         1.0       0.38108523516086784           0.2518915627571589 0.8454449438012457 1.0000   
         H         H         1.0       0.4250703229325479  0.23354045334439494           0.7853059633613655 1.0000   
         H         H         1.0       0.45809329026204576           0.2819809894333175 0.7759534962159712 1.0000   
         C         C         1.0       0.586363503171048   0.42021913212945117           0.8717127861907574 1.0000   
         C         C         1.0       0.6101483544676609  0.4381880809830542  0.8876733336482638 1.0000   
         C         C         1.0       0.6142801666849441  0.46247267718472984           0.8987492907079234 1.0000   
         C         C         1.0       0.5914543232388055  0.46760631008323633           0.8992448886297136 1.0000   
         C         C         1.0       0.5678577421640366  0.44895974696564195           0.8831222055778123 1.0000   
         C         C         1.0       0.5651192631545348  0.4260921917812496  0.8690527311131004 1.0000   
         H         H         1.0       0.6250268923925301  0.43098015256055844           0.8916783416940565 1.0000   
         H         H         1.0       0.634431038009513   0.475330326043836   0.9113660316999217 1.0000   
         H         H         1.0       0.5483221676460349  0.44994320419963574           0.8851687609959676 1.0000   
         H         H         1.0       0.5457264165762212  0.41209722795362363           0.8582858468213576 1.0000   
         C         C         1.0       0.5723798183815687  0.5068346217314493  0.8788913171148963 1.0000   
         C         C         1.0       0.5770376399219637  0.5069384612845653  0.9067404216055942 1.0000   
         C         C         1.0       0.5668513786934949  0.5191299382767923  0.9250265728354828 1.0000   
         C         C         1.0       0.5501439288864606  0.529243302465922   0.9171093848410451 1.0000   
         C         C         1.0       0.5429487993497002  0.5260557924077067  0.8890322175234617 1.0000   
         C         C         1.0       0.5544187851132978  0.5154957548099219  0.8701272789102932 1.0000   
         C         C         1.0       0.5898925571666788  0.48902997531988046           0.9192890728651688 1.0000   
         C         C         1.0       0.6205967656832853  0.5143916734143305  0.9288552578767004 1.0000   
         C         C         1.0       0.6271670791294278  0.5266422908391896  0.954453722166105  1.0000   
         C         C         1.0       0.6528393065951354  0.5521758237805702  0.9603922564395069 1.0000   
         C         C         1.0       0.67206322810482    0.5657290475905177  0.9389919314790288 1.0000   
         C         C         1.0       0.665290186751308   0.5552088139915818  0.9118629878493002 1.0000   
         C         C         1.0       0.6406251788331776  0.528756413335015   0.9072430039244128 1.0000   
         C         C         1.0       0.5399756476567336  0.4538820714736686  0.9443791928600281 1.0000   
         C         C         1.0       0.524455675847981   0.4354690538486645  0.9654310729837289 1.0000   
         C         C         1.0       0.537258582566135   0.4257290613817337  0.9827085310362984 1.0000   
         C         C         1.0       0.5669858737344918  0.4371396467075846  0.9793597325225949 1.0000   
         C         C         1.0       0.5825673082148614  0.45604665882067474           0.9581283276167903 1.0000   
         C         C         1.0       0.5700227249146224  0.4664892761383573  0.9414157820277487 1.0000   
         C         C         1.0       0.5176115874036278  0.4026120218047826  0.007171656667204651         1.0000   
         C         C         1.0       0.46375353996315993           0.4267483122010273 0.04851710458819092          1.0000   
         C         C         1.0       0.4885791914720283  0.44646697733265145           0.0348529815109484 1.0000   
         C         C         1.0       0.5074168006389391  0.4401019973816536  0.025710834161926543         1.0000   
         C         C         1.0       0.499483054521193   0.411764418061441   0.025574009253659158         1.0000   
         C         C         1.0       0.4767798882763413  0.39288894525404283           0.04169616471641313          1.0000   
         C         C         1.0       0.45782515214778163           0.39983119305992165          0.05060641996000248          1.0000   
         C         C         1.0       0.5195089190099688  0.3654461820562265  0.5244165436428967 1.0000   
         C         C         1.0       0.5300798725327202  0.3482602746536707  0.5210359593897941 1.0000   
         C         C         1.0       0.5413462206070485  0.34088027374195484           0.5412934209804516 1.0000   
         C         C         1.0       0.5426830504679646  0.35113588994824907           0.5672554616205273 1.0000   
         C         C         1.0       0.5337033233918994  0.37082343946060015           0.5713935678890307 1.0000   
         C         C         1.0       0.5210474906361541  0.3769937091323918  0.5508336632945113 1.0000   
         C         C         1.0       0.4620166203279047  0.3166414138307922  0.5073238655091754 1.0000   
         C         C         1.0       0.4397532348085718  0.289432067197224   0.4987316949458584 1.0000   
         C         C         1.0       0.4374588045933473  0.28229414968685135           0.47075195854719787          1.0000   
         C         C         1.0       0.5007676992622522  0.34803600930715556           0.9485171906767178 1.0000   
         C         C         1.0       0.5139217055381794  0.36601977408488523           0.9700414245949994 1.0000   
         C         C         1.0       0.4991766601613133  0.37566518457143044           0.9872658638947688 1.0000   
         H         H         1.0       0.5808206071193373  0.49998131998003736           0.8627887314803704 1.0000   
         H         H         1.0       0.5691920995090881  0.5181381615853909  0.9458203179597944 1.0000   
         H         H         1.0       0.5384434395411218  0.535741159968448   0.9318493970180368 1.0000   
         H         H         1.0       0.5482243938679302  0.5135571118763994  0.8488303834578271 1.0000   
         H         H         1.0       0.611101772483628   0.5163411743514409  0.970655379447337  1.0000   
         H         H         1.0       0.6556957902642014  0.5606528273479015  0.9813436005331946 1.0000   
         H         H         1.0       0.6799012129269573  0.566748333008481   0.8942595488510053 1.0000   
         H         H         1.0       0.6390142402715248  0.5209841841658627  0.8857744565678343 1.0000   
         H         H         1.0       0.5287395635594029  0.4593294384290253  0.929775962745698  1.0000   
         H         H         1.0       0.5007720466775045  0.4243603148009259  0.9645541362213599 1.0000   
         H         H         1.0       0.5765703649293654  0.42879513142091696           0.9920502830817259 1.0000   
         H         H         1.0       0.6055345564981292  0.4650098826850802  0.9582692375020389 1.0000   
         H         H         1.0       0.49549691496579373           0.46844447283637614          0.034898956588368835         1.0000   
         H         H         1.0       0.528309566572573   0.4574221861464088  0.018318883046876122         1.0000   
         H         H         1.0       0.47333521867824324           0.3729157199927012 0.04027925021474177          1.0000   
         H         H         1.0       0.43788412975900604           0.38188456943153654          0.05780181414564578          1.0000   
         H         H         1.0       0.5175796497067079  0.3538531661550497  0.024697821988568958         1.0000   
         H         H         1.0       0.5490356036821528  0.32703290565063303           0.5351237852103253 1.0000   
         H         H         1.0       0.5347742863999443  0.38123543409388594           0.5895224851757416 1.0000   
         H         H         1.0       0.5098959169945702  0.3879253834330496  0.5564166607281561 1.0000   
         H         H         1.0       0.4640966830264152  0.31998556497810265           0.5287869438312401 1.0000   
         H         H         1.0       0.42343230010125893           0.27567320170923654          0.5138879964321452 1.0000   
         H         H         1.0       0.5124719929112375  0.34285548958257517           0.9349689499245735 1.0000   
         H         H         1.0       0.5367037321165671  0.37408529865529744           0.972036420463018  1.0000   
         C         C         1.0       0.33276678576033875           0.506792534798955  0.9253538459241651 1.0000   
         C         C         1.0       0.33950783548160185           0.5306353677149503 0.9116620813055867 1.0000   
         C         C         1.0       0.3635461628805716  0.5447046945697368  0.8958324334184384 1.0000   
         C         C         1.0       0.3836013581755386  0.5360804654588489  0.8932159460016892 1.0000   
         C         C         1.0       0.37577723414436276           0.5114072326302032 0.9082422219129421 1.0000   
         C         C         1.0       0.35168717530170684           0.4979221884448523 0.9250757055965085 1.0000   
         H         H         1.0       0.323575556696252   0.5354957824911558  0.9109705719487587 1.0000   
         H         H         1.0       0.36660609699027086           0.561789388491984  0.8841588151261851 1.0000   
         H         H         1.0       0.3856144859087412  0.4990062988792673  0.9061970336534759 1.0000   
         H         H         1.0       0.343913959578414   0.4771260759270942  0.9307175862151468 1.0000   
         C         C         1.0       0.44798158270413657           0.5512730635369398 0.9034217721961517 1.0000   
         C         C         1.0       0.43870039035123953           0.5504672013206108 0.8769933815617984 1.0000   
         C         C         1.0       0.45568311447945803           0.5530534687830005 0.8554026132580141 1.0000   
         C         C         1.0       0.4824009941491089  0.5563863938158033  0.8601110875693834 1.0000   
         C         C         1.0       0.49194241036803554           0.5575699369251309 0.8861951653384466 1.0000   
         C         C         1.0       0.47364812737145234           0.5523801666730305 0.9083356349807898 1.0000   
         C         C         1.0       0.4090182224308205  0.5489054045542006  0.8709085926438667 1.0000   
         C         C         1.0       0.42279718153216606           0.5813624568054199 0.8637791676747114 1.0000   
         C         C         1.0       0.4336488472086572  0.5938114852919308  0.8376294443386765 1.0000   
         C         C         1.0       0.4515141161624772  0.6226398710649691  0.8344991197630199 1.0000   
         C         C         1.0       0.45709961383866893           0.6418414815225771 0.8553750298719214 1.0000   
         C         C         1.0       0.445534856677912   0.6298411960322586  0.8818853755011666 1.0000   
         C         C         1.0       0.4310910824025486  0.6006590810184379  0.8862447250473231 1.0000   
         C         C         1.0       0.38864805364646754           0.5016823948057497 0.8457023901912561 1.0000   
         C         C         1.0       0.3684949178390799  0.47914580247209637           0.828610200105712  1.0000   
         C         C         1.0       0.35321694018590466           0.48428969405975736          0.808645941917554  1.0000   
         C         C         1.0       0.3563148391807216  0.511454146762164   0.81032124694126   1.0000   
         C         C         1.0       0.37454115830205975           0.5318391973649341 0.8279654798329025 1.0000   
         C         C         1.0       0.39207245259878026           0.5274864543481504 0.8461066096151183 1.0000   
         C         C         1.0       0.33377260631346145           0.4607113572686404 0.7866602235000418 1.0000   
         C         C         1.0       0.38247977996727034           0.41925140995604004          0.7701340089848138 1.0000   
         C         C         1.0       0.3603778709646312  0.40772837800281925           0.7899184166089352 1.0000   
         C         C         1.0       0.344368242502229   0.42038101062202626           0.7922950202502359 1.0000   
         C         C         1.0       0.3512271731363852  0.44563435560389647           0.7791802210062082 1.0000   
         C         C         1.0       0.3733920503925928  0.45488680278662647           0.7596995268029447 1.0000   
         C         C         1.0       0.3900264588847692  0.4434683681638037  0.7562154485803152 1.0000   
         C         C         1.0       0.32610896135922723           0.47232708745999635          0.7595835365549083 1.0000   
         C         C         1.0       0.29858473580650075           0.4621590057422581 0.7487919292648695 1.0000   
         C         C         1.0       0.29485149116085574           0.4755596761306103 0.7274822933293557 1.0000   
         C         C         1.0       0.31808188310733826           0.4987514501815613 0.7146311579369237 1.0000   
         C         C         1.0       0.3458170627454557  0.5080907673380215  0.7229435191281312 1.0000   
         C         C         1.0       0.34870846809618483           0.49457266677133227          0.7456650383029553 1.0000   
         C         C         1.0       0.28372798321884835           0.4130294509209904 0.7937763876854311 1.0000   
         C         C         1.0       0.2573336483176481  0.3970325501044357  0.8043884024076771 1.0000   
         C         C         1.0       0.24674160728536773           0.4061926834863498 0.8255681059183769 1.0000   
         C         C         1.0       0.2649253435350628  0.432956190898369   0.8345436086523675 1.0000   
         C         C         1.0       0.29315925789298825           0.44966111214365256          0.8247893035279379 1.0000   
         C         C         1.0       0.302159992462408   0.44033087468445214           0.8027319873453211 1.0000   
         H         H         1.0       0.43325369320343743           0.5469027813151925 0.9209273783346403 1.0000   
         H         H         1.0       0.4494258015295015  0.5550525811734611  0.8357697533305875 1.0000   
         H         H         1.0       0.4950779368416623  0.5577665224513967  0.8436467327627264 1.0000   
         H         H         1.0       0.48183269251223343           0.5515825765114827 0.9290282828783767 1.0000   
         H         H         1.0       0.42914416009342465           0.5831088602597491 0.818480154608021  1.0000   
         H         H         1.0       0.4581603815171906  0.6295511176224609  0.813064656629867  1.0000   
         H         H         1.0       0.45327834193173244           0.6444735063513789 0.8991228334452566 1.0000   
         H         H         1.0       0.42755902357325215           0.5920144878106384 0.9081339646414252 1.0000   
         H         H         1.0       0.39753277139793514           0.4976197841348933 0.8625586849941489 1.0000   
         H         H         1.0       0.3624126647843495  0.45733860515809815           0.8327056055980341 1.0000   
         H         H         1.0       0.34572301077840567           0.5186203025602502 0.79711244536454   1.0000   
         H         H         1.0       0.3746269596340403  0.5502083812701737  0.8273937215411163 1.0000   
         H         H         1.0       0.355685641437243   0.3900142744434097  0.8028070635824313 1.0000   
         H         H         1.0       0.32913437302665915           0.41424127050169024          0.8100452688721461 1.0000   
         H         H         1.0       0.37960417073297403           0.47252514318754296          0.746517588082583  1.0000   
         H         H         1.0       0.4088476675971038  0.45573725111921215           0.7422518370508476 1.0000   
         H         H         1.0       0.279513326649384   0.4447305428172378  0.7587587427897753 1.0000   
         H         H         1.0       0.2735304011145353  0.46906747957983386           0.7210171342324321 1.0000   
         H         H         1.0       0.3625035352327299  0.5269114839709645  0.7120224049347068 1.0000   
         H         H         1.0       0.36971312439510207           0.5034546186105453 0.7548878793534594 1.0000   
         H         H         1.0       0.2889335737296397  0.40615341579213793           0.7743461353575084 1.0000   
         H         H         1.0       0.24257069626234565           0.37501618065696757          0.7971687464699381 1.0000   
         H         H         1.0       0.25674612866457414           0.4414041123071959 0.8499575297374996 1.0000   
         H         H         1.0       0.3073203210571001  0.47038155965987377           0.8342907551676592 1.0000   
         C         C         1.0       0.31924291732331717           0.4990718488684116 0.6482400295392212 1.0000   
         C         C         1.0       0.33931699053911585           0.5202405512518499 0.6297218822875345 1.0000   
         C         C         1.0       0.3562740576206188  0.5152647905558289  0.6131974536743405 1.0000   
         C         C         1.0       0.3554507094992649  0.48979035295686296           0.6167329108168107 1.0000   
         C         C         1.0       0.3332995996497277  0.46742470924833185           0.632409746410626  1.0000   
         C         C         1.0       0.3178732354701152  0.4729743806604529  0.651066448733605  1.0000   
         H         H         1.0       0.3386051387977734  0.5393651779537271  0.6287849394268675 1.0000   
         H         H         1.0       0.37170178550848887           0.533218175862152  0.6011273484210349 1.0000   
         H         H         1.0       0.33019009741192173           0.4465649177927923 0.6337837535961137 1.0000   
         H         H         1.0       0.3032279528128576  0.4576448785119604  0.6650791361403051 1.0000   
         C         C         1.0       0.38864825102574946           0.46449848001263616          0.6417406022597597 1.0000   
         C         C         1.0       0.38185969633566197           0.46085736539682504          0.614525359154845  1.0000   
         C         C         1.0       0.38597953131576973           0.44185984586321303          0.6000993737319124 1.0000   
         C         C         1.0       0.39826652366760557           0.42841444229858683          0.6129592056136515 1.0000   
         C         C         1.0       0.40441298083440286           0.4315389088558196 0.6402475351781113 1.0000   
         C         C         1.0       0.40028944361734936           0.45053198849066656          0.6542837660719938 1.0000   
         C         C         1.0       0.3747113469643067  0.48107855369579283           0.5993567497414336 1.0000   
         C         C         1.0       0.4063565065288217  0.5075715040271023  0.5915728140571359 1.0000   
         C         C         1.0       0.41949061644149754           0.5065605416489712 0.5668950940556626 1.0000   
         C         C         1.0       0.4458871608699149  0.5282033520507643  0.5597402757395458 1.0000   
         C         C         1.0       0.4600910520870751  0.5513088680471266  0.5752312694982717 1.0000   
         C         C         1.0       0.4486738136145738  0.5533565260301117  0.5999149403773184 1.0000   
         C         C         1.0       0.4235186879522108  0.5297430897334161  0.6105368701763956 1.0000   
         C         C         1.0       0.3376624515281478  0.442441165646521   0.5621186201234979 1.0000   
         C         C         1.0       0.3305163950469105  0.4366923911866388  0.5346017811345416 1.0000   
         C         C         1.0       0.3374518054645856  0.45876917477428925           0.5159619611019199 1.0000   
         C         C         1.0       0.3495179508359147  0.4861582951578799  0.5266940229628627 1.0000   
         C         C         1.0       0.3570431446833938  0.4908347075424544  0.55300540441183   1.0000   
         C         C         1.0       0.3557338708710237  0.47075209063246076           0.5718938115276698 1.0000   
         C         C         1.0       0.3532310732008775  0.48055155061749794           0.06835677832823372          1.0000   
         C         C         1.0       0.3979966499439052  0.4375202642708096  0.0508786099695846 1.0000   
         C         C         1.0       0.37971529166544626           0.4291454127380405 0.073419402045791  1.0000   
         C         C         1.0       0.36450192986361585           0.44262633805339346          0.07843547394095074          1.0000   
         C         C         1.0       0.3680286978258002  0.46420315385602046           0.06143060816321522          1.0000   
         C         C         1.0       0.3875034350560295  0.47273746825110563           0.03997004337594423          1.0000   
         C         C         1.0       0.4037172659037448  0.46053995622177407           0.03553213408602485          1.0000   
         C         C         1.0       0.3435248042725071  0.48753466677770874           0.04015123641943097          1.0000   
         C         C         1.0       0.34711181729042534           0.5136464190595904 0.034592703860665264         1.0000   
         C         C         1.0       0.3360762042579065  0.5175019628497761  0.01128660135263515          1.0000   
         C         C         1.0       0.32103327639839446           0.4964580290935995 0.9929594611259813 1.0000   
         C         C         1.0       0.31589267723079467           0.46985667639286094          0.9984927273561163 1.0000   
         C         C         1.0       0.3286086584951018  0.46592179077620643           0.020619558001693017         1.0000   
         C         C         1.0       0.30333907520910053           0.43784187256924634          0.0861626686709529 1.0000   
         C         C         1.0       0.27612811688157846           0.4296546194196455 0.09815586601499038          1.0000   
         C         C         1.0       0.2731478397168097  0.4488505286822504  0.11213770979876658          1.0000   
         C         C         1.0       0.2952289556132067  0.47600562154480336           0.11442616956272822          1.0000   
         C         C         1.0       0.321125391894437   0.4839657029844066  0.10387993398700024          1.0000   
         C         C         1.0       0.32538955699012934           0.4664902721849128 0.08741114181121046          1.0000   
         H         H         1.0       0.3845989260893456  0.4788843017889602  0.6515985252014732 1.0000   
         H         H         1.0       0.38359325613624334           0.43960933687667775          0.5773432041026605 1.0000   
         H         H         1.0       0.40523401837292383           0.4172243855585294 0.5996447569790253 1.0000   
         H         H         1.0       0.40751037092104525           0.45477086415736906          0.6758657234603814 1.0000   
         H         H         1.0       0.4086320912703679  0.4891777110356897  0.5524523730883782 1.0000   
         H         H         1.0       0.45739185425168627           0.5273479001410767 0.5420058798921703 1.0000   
         H         H         1.0       0.4606336512686086  0.5718304882421226  0.612907134055575  1.0000   
         H         H         1.0       0.4134059309835893  0.5324373999388314  0.6295830075028931 1.0000   
         H         H         1.0       0.3323933923216569  0.4256311613394377  0.5781754069801188 1.0000   
         H         H         1.0       0.32259033728366293           0.4143858116188259 0.5295139003074549 1.0000   
         H         H         1.0       0.35450441413193207           0.5053172540915326 0.5154446640262783 1.0000   
         H         H         1.0       0.3712602471839702  0.5133968059803398  0.5596432251642188 1.0000   
         H         H         1.0       0.37641780735557767           0.41259101132843307          0.08498025442526935          1.0000   
         H         H         1.0       0.3503776403754931  0.4365563117378478  0.096334939543268  1.0000   
         H         H         1.0       0.39010802117918203           0.49020436202496825          0.02691116085896761          1.0000   
         H         H         1.0       0.4209175229923282  0.46890411917366914           0.020494108542716827         1.0000   
         H         H         1.0       0.3566850092967923  0.5299763012953561  0.049259136460587216         1.0000   
         H         H         1.0       0.33907785004329577           0.5378354694354709 0.007781095071108579         1.0000   
         H         H         1.0       0.3021961565561817  0.4531584371877045  0.9855162458430501 1.0000   
         H         H         1.0       0.3246621427704507  0.44418885814349174           0.023248723783975578         1.0000   
         H         H         1.0       0.3063655506226203  0.42427585253117905           0.0721658584154643 1.0000   
         H         H         1.0       0.25793896265989935           0.4074945922835398 0.09823052537730548          1.0000   
         H         H         1.0       0.23945573682558605           0.39696175762915004          0.47768249286678044          1.0000   
         H         H         1.0       0.28194151801725503           0.4338250218344229 0.49840229464488023          1.0000   
         C         C         1.0       0.5729666121927917  0.7896643062593911  0.7319714200286173 1.0000   
         C         C         1.0       0.5540430527284358  0.7662994738312117  0.7468383246540787 1.0000   
         C         C         1.0       0.5640371892368854  0.7576336338090791  0.7678166382587449 1.0000   
         C         C         1.0       0.5916685232241624  0.7749376887336537  0.7771109687367985 1.0000   
         C         C         1.0       0.6099644557786852  0.8001499700368919  0.7631156905920642 1.0000   
         C         C         1.0       0.6009920536872131  0.8067747915411877  0.7402221726570288 1.0000   
         H         H         1.0       0.5311384466560273  0.7530209131151898  0.7410020734980669 1.0000   
         H         H         1.0       0.5513701898997243  0.7382446501871827  0.7784743942229471 1.0000   
         H         H         1.0       0.6329519353669462  0.8126474208187172  0.7682471912502798 1.0000   
         H         H         1.0       0.6173015569398156  0.8251490588364258  0.7288119034013026 1.0000   
         C         C         1.0       0.6000867984350692  0.7237840286132893  0.7758676888914423 1.0000   
         C         C         1.0       0.6169115341259427  0.7527036697020254  0.7829631540539141 1.0000   
         C         C         1.0       0.6453645891684223  0.7669017641652275  0.7730802072803595 1.0000   
         C         C         1.0       0.6567707264151313  0.7544520164156344  0.7576317952544647 1.0000   
         C         C         1.0       0.639214599887448   0.727139614012133   0.7498974187637586 1.0000   
         C         C         1.0       0.6114265708267519  0.7119467802932815  0.7577912278786695 1.0000   
         C         C         1.0       0.6052508987958294  0.7671983767237672  0.8015930451031903 1.0000   
         C         C         1.0       0.5808001846374181  0.7474787057296503  0.8244402586289151 1.0000   
         C         C         1.0       0.559162819509638   0.752449767636871   0.8323967176422019 1.0000   
         C         C         1.0       0.5349970298391962  0.7311760053730193  0.8458953853992324 1.0000   
         C         C         1.0       0.5333018957448051  0.7061763330631247  0.8533792505303274 1.0000   
         C         C         1.0       0.5568616370695098  0.7037439707494845  0.8514551869622592 1.0000   
         C         C         1.0       0.5805107537254587  0.7249912113604212  0.8363972531814239 1.0000   
         C         C         1.0       0.6464461220977823  0.7842311170441115  0.8339387627442901 1.0000   
         C         C         1.0       0.671605394900261   0.8050297336555086  0.8438183951624505 1.0000   
         C         C         1.0       0.6793952738230769  0.8326255767394232  0.841109795641359  1.0000   
         C         C         1.0       0.6581322353034346  0.8385403773745376  0.835097587016137  1.0000   
         C         C         1.0       0.6327983271985513  0.8179731911447219  0.8247072062535272 1.0000   
         C         C         1.0       0.6288423912060533  0.7909494386543511  0.821010846785457  1.0000   
         C         C         1.0       0.7116727018038796  0.8592290832467916  0.8459623648330324 1.0000   
         C         C         1.0       0.7808733087845185  0.8430704051987498  0.8346743758225708 1.0000   
         C         C         1.0       0.7559560707190778  0.8279828876343887  0.8198393808941393 1.0000   
         C         C         1.0       0.7348576433534729  0.8341941939147101  0.8215006489493215 1.0000   
         C         C         1.0       0.7380202852261519  0.8544278550032529  0.8398860288611928 1.0000   
         C         C         1.0       0.7632126683492666  0.8699350340782723  0.8543716211113377 1.0000   
         C         C         1.0       0.7852700430856179  0.8646414870940698  0.8501852529352013 1.0000   
         C         C         1.0       0.7064178496531327  0.8641935961968854  0.8768665844670465 1.0000   
         C         C         1.0       0.6995690780150203  0.8839103335857751  0.884438600868392  1.0000   
         C         C         1.0       0.6898734061819342  0.8840612514812837  0.9115502694983025 1.0000   
         C         C         1.0       0.6898712203571431  0.8658774710081543  0.9315923052759606 1.0000   
         C         C         1.0       0.6967465189985571  0.8463143154747151  0.9242928775680749 1.0000   
         C         C         1.0       0.7059380760393159  0.8464740326533046  0.8971452230873492 1.0000   
         C         C         1.0       0.7382780912360106  0.9119187020825519  0.828436040202403  1.0000   
         C         C         1.0       0.7463939079635769  0.9317499851930207  0.8087810985979553 1.0000   
         C         C         1.0       0.7375510279729159  0.9255992489479138  0.7822887780545078 1.0000   
         C         C         1.0       0.7228175555921239  0.8969203591406177  0.7755342223437425 1.0000   
         C         C         1.0       0.7125383244859973  0.8755721945227286  0.7946302834723467 1.0000   
         C         C         1.0       0.7203466419408423  0.8821510383937411  0.8218384427915973 1.0000   
         H         H         1.0       0.5783566918535404  0.7112854714740527  0.7824280635358061 1.0000   
         H         H         1.0       0.6593169801109184  0.7893226909849642  0.778261265852391  1.0000   
         H         H         1.0       0.679628487437368   0.7686458325227954  0.7544058533809977 1.0000   
         H         H         1.0       0.598538314961677   0.6903410377497395  0.7540985360340129 1.0000   
         H         H         1.0       0.5594507079718658  0.7703797554139875  0.8234153915996237 1.0000   
         H         H         1.0       0.5164159996939136  0.7341515099046463  0.8477261437420023 1.0000   
         H         H         1.0       0.556946623641468   0.6861718136015167  0.8593195105227168 1.0000   
         H         H         1.0       0.5961307202736246  0.7203869328404073  0.8323592998746272 1.0000   
         H         H         1.0       0.643639708265717   0.7630218462782213  0.8314705227578055 1.0000   
         H         H         1.0       0.6874758351905731  0.8002777189408031  0.8532678246760254 1.0000   
         H         H         1.0       0.6620245187138093  0.8586212293701269  0.8380699332451838 1.0000   
         H         H         1.0       0.6192453044465613  0.8235615978731046  0.8162138678069718 1.0000   
         H         H         1.0       0.7511746408003848  0.8102694908083224  0.8072115398104569 1.0000   
         H         H         1.0       0.7150376762378515  0.8218997387080662  0.810163013637866  1.0000   
         H         H         1.0       0.767773944350418   0.8873219364965172  0.8686322622871466 1.0000   
         H         H         1.0       0.8050286017529115  0.8753464294706939  0.8610043737622664 1.0000   
         H         H         1.0       0.6991366729039382  0.8981213059777624  0.8694761600721302 1.0000   
         H         H         1.0       0.6789018237017228  0.8950715349635489  0.9168656530788232 1.0000   
         H         H         1.0       0.6975488660486115  0.8320708573669293  0.9367705200531316 1.0000   
         H         H         1.0       0.712492547966118   0.8315457188967732  0.8922217949259549 1.0000   
         H         H         1.0       0.7468305765567591  0.9180680801128367  0.8487064603317193 1.0000   
         H         H         1.0       0.7580110717983214  0.9545670378900128  0.8147194377472904 1.0000   
         H         H         1.0       0.7157760806174707  0.8873440212737704  0.7552712825872556 1.0000   
         H         H         1.0       0.702603767751421   0.8541919976111122  0.7873738055057747 1.0000   
         C         C         1.0       0.6978350747060211  0.8521485269150345  0.004034289096704224         1.0000   
         C         C         1.0       0.6788139690974987  0.8456566029267744  0.0254196166167886 1.0000   
         C         C         1.0       0.5987535142673267  0.7344340174984996  0.5190099951926705 1.0000   
         C         C         1.0       0.6170185384327437  0.7250491662418683  0.5224912129253805 1.0000   
         C         C         1.0       0.7000544097969102  0.8130499196458747  0.014568706970203626         1.0000   
         C         C         1.0       0.7074203727639238  0.8351764968491356  0.9978567751359754 1.0000   
         H         H         1.0       0.6672232772182034  0.8563058325264657  0.027434122908599035         1.0000   
         H         H         1.0       0.5766001188038681  0.7191565391681382  0.5258052080161214 1.0000   
         H         H         1.0       0.7151143706924987  0.8053921019831926  0.012623827795048115         1.0000   
         H         H         1.0       0.7244548830930557  0.8409037189406569  0.9825972141268836 1.0000   
         C         C         1.0       0.6893815493822072  0.7523951962550975  0.030568893356522686         1.0000   
         C         C         1.0       0.6253286682988304  0.6833423520289523  0.5338842116900943 1.0000   
         C         C         1.0       0.6329149766550545  0.670307256435682   0.5537950025682894 1.0000   
         C         C         1.0       0.6440976422352496  0.6554480224078809  0.5458679159360477 1.0000   
         C         C         1.0       0.7116448708900699  0.7302149569116528  0.0512127074939579 1.0000   
         C         C         1.0       0.7032364437383705  0.7379831345943534  0.027722593731284606         1.0000   
         C         C         1.0       0.6109081332071521  0.699752715055017   0.5418773244933188 1.0000   
         C         C         1.0       0.5780560903436539  0.6741084199923184  0.5459089306777285 1.0000   
         C         C         1.0       0.5693321950153913  0.6577566704819172  0.5710875943836445 1.0000   
         C         C         1.0       0.5419355111315047  0.6365259595875763  0.5748675329887293 1.0000   
         C         C         1.0       0.5227694077461019  0.6270000992638565  0.5521411874255012 1.0000   
         C         C         1.0       0.5306746041056813  0.6423533005621811  0.5284935137167488 1.0000   
         C         C         1.0       0.5581810924618967  0.6650036483147926  0.5257819059161082 1.0000   
         C         C         1.0       0.6542955421105402  0.7316577649562986  0.5745017725591888 1.0000   
         C         C         1.0       0.6648042814996614  0.7477482221878008  0.5977824829218451 1.0000   
         C         C         1.0       0.6460025222392708  0.7483768942791338  0.6168511166160945 1.0000   
         C         C         1.0       0.6169954819030441  0.7354834535070377  0.6101150582618513 1.0000   
         C         C         1.0       0.6079605439327779  0.7226964533930357  0.5857653385309837 1.0000   
         C         C         1.0       0.6245422986813215  0.7175802617525855  0.5687858346638773 1.0000   
         C         C         1.0       0.6564687408172305  0.7557120741993238  0.648958269662334  1.0000   
         C         C         1.0       0.6446736068458423  0.670841288536499   0.6520152888912756 1.0000   
         C         C         1.0       0.671058883873648   0.6946588611261053  0.6496068223834509 1.0000   
         C         C         1.0       0.675983331585344   0.7217860277806234  0.6541726792910741 1.0000   
         C         C         1.0       0.6527479035907844  0.7250695512298169  0.6576325095863442 1.0000   
         C         C         1.0       0.6257445765264111  0.7012599387895554  0.6589348574391043 1.0000   
         C         C         1.0       0.6218235643435133  0.6748415631791652  0.6567362070599939 1.0000   
         C         C         1.0       0.6380075965661894  0.7664099197333972  0.6637943401198662 1.0000   
         C         C         1.0       0.6361701396279362  0.7882184438499     0.650579483278421  1.0000   
         C         C         1.0       0.6132621140221562  0.7912737448173911  0.6575148664346245 1.0000   
         C         C         1.0       0.5924889417400953  0.773883022272444   0.6764928264615516 1.0000   
         C         C         1.0       0.5963262154891334  0.7550945420121097  0.6910380899140791 1.0000   
         C         C         1.0       0.6191978363467662  0.7528205878556143  0.6855275245617986 1.0000   
         C         C         1.0       0.7010200455841491  0.7859835295922148  0.6798391819608949 1.0000   
         C         C         1.0       0.7285224663986173  0.8087200696388678  0.6837019329342524 1.0000   
         C         C         1.0       0.7425828829857586  0.8283586662760043  0.6632893294078834 1.0000   
         C         C         1.0       0.7283821650904594  0.8250568077919103  0.6389984917676802 1.0000   
         C         C         1.0       0.7017581732587167  0.8026573790179248  0.6349903420488165 1.0000   
         C         C         1.0       0.6880849170961376  0.781707147001309   0.6548846659748288 1.0000   
         H         H         1.0       0.6820393226952821  0.7577484969838318  0.012149738102987584         1.0000   
         H         H         1.0       0.6285523772713595  0.6710224317447551  0.575636503850507  1.0000   
         H         H         1.0       0.64894738752747    0.6447292558588912  0.5614738189162642 1.0000   
         H         H         1.0       0.7043130603021822  0.72878192559742    0.008246665316327784         1.0000   
         H         H         1.0       0.5835115376712717  0.6668925146939805  0.5892777454423929 1.0000   
         H         H         1.0       0.5365152608757892  0.6279176509946621  0.5955455321148616 1.0000   
         H         H         1.0       0.5159286663521991  0.6386342359693259  0.5119651338307193 1.0000   
         H         H         1.0       0.6303232230693784  0.7595962069964299  0.030073756834879672         1.0000   
         H         H         1.0       0.6664366027869084  0.7289406721844246  0.5600954155434488 1.0000   
         H         H         1.0       0.687752334614153   0.7582280824863158  0.6025781388548506 1.0000   
         H         H         1.0       0.6013487910918498  0.7356680512429415  0.6239750689623165 1.0000   
         H         H         1.0       0.5867180058509639  0.7156920124335674  0.5781443199554767 1.0000   
         H         H         1.0       0.6882395533609185  0.6949155259065526  0.6402011463542864 1.0000   
         H         H         1.0       0.6969546641844986  0.7416228609382535  0.6481290397083067 1.0000   
         H         H         1.0       0.6046513149542245  0.7010397222467918  0.661176508963217  1.0000   
         H         H         1.0       0.6002208662348003  0.6569520088037487  0.6602236667529369 1.0000   
         H         H         1.0       0.6514334672298625  0.8024054780108086  0.6346963564423523 1.0000   
         H         H         1.0       0.6125327443665035  0.807585309505329   0.6477681567636501 1.0000   
         H         H         1.0       0.5798327236661219  0.7380614465442957  0.7039617310206109 1.0000   
         H         H         1.0       0.6188760611006464  0.7359143911723659  0.6966353901281273 1.0000   
         H         H         1.0       0.6884368212490571  0.7715064571412675  0.6973536155436804 1.0000   
         H         H         1.0       0.7386381129834344  0.8124175334991859  0.7033800235852821 1.0000   
         H         H         1.0       0.7395562540645588  0.8399385457892116  0.6231119368160143 1.0000   
         H         H         1.0       0.6950605857806677  0.801288873191443   0.6133799631029514 1.0000   
         C         C         1.0       0.860687156934417   0.3412028628191361  0.6284661355506188 1.0000   
         C         C         1.0       0.8587164695154343  0.3597999390230736  0.6116527658890338 1.0000   
         C         C         1.0       0.8806176340696187  0.3758874803212985  0.5936387865239754 1.0000   
         C         C         1.0       0.9053429761358679  0.3747805276547966  0.5926004492242085 1.0000   
         C         C         1.0       0.9048755346872482  0.3536066924395583  0.6067205660663473 1.0000   
         C         C         1.0       0.8838838313652604  0.33815156212128944           0.626160212458685  1.0000   
         H         H         1.0       0.840925855331113   0.3629241802263955  0.6138782186060394 1.0000   
         H         H         1.0       0.8795064564070881  0.3911013990337676  0.5799428098589245 1.0000   
         H         H         1.0       0.9238887625286033  0.35166695391592456           0.6046549617011533 1.0000   
         H         H         1.0       0.8869504630729762  0.32372617990480107           0.640423408002431  1.0000   
         C         C         1.0       0.9692353828056309  0.4077733059373067  0.6163563830237018 1.0000   
         C         C         1.0       0.963781706712003   0.4083188734711153  0.5893411422487664 1.0000   
         C         C         1.0       0.9854635660063872  0.41501393299229067           0.5703314110840739 1.0000   
         C         C         1.0       0.013211855122588698          0.42310502399497046          0.5783880790676613 1.0000   
         C         C         1.0       0.018492393826030334          0.42586499234621894          0.606342469735719  1.0000   
         C         C         1.0       0.9957175067762685  0.4156788951738859  0.6248397422001404 1.0000   
         C         C         1.0       0.9336515979319576  0.39924426638699173           0.577674042406605  1.0000   
         C         C         1.0       0.9377344578632308  0.43022426886697407           0.57866655962756   1.0000   
         C         C         1.0       0.9486502772489707  0.4477915452847076  0.556353244326086  1.0000   
         C         C         1.0       0.9499048123473165  0.47322065898330445           0.5546155732557522 1.0000   
         C         C         1.0       0.9400146549252719  0.4816722507914151  0.5768664747084787 1.0000   
         C         C         1.0       0.931852938258166   0.46632477860235577           0.6013778642449095 1.0000   
         C         C         1.0       0.929852217235859   0.44048946651454335           0.6021922562158021 1.0000   
         C         C         1.0       0.9335001229178098  0.36307553610587023           0.5440323108244418 1.0000   
         C         C         1.0       0.9347574858535077  0.35485002199797516           0.5183154196583946 1.0000   
         C         C         1.0       0.025552028604594046          0.4491223338473383 0.02928715947745153          1.0000   
         C         C         1.0       0.005597723799649845          0.4547292102032037 0.0406714827826109 1.0000   
         C         C         1.0       0.9150379719338304  0.3892108821649302  0.527065952195231  1.0000   
         C         C         1.0       0.9268305244616032  0.38382985549662396           0.5480163201332904 1.0000   
         C         C         1.0       0.027283812973595944          0.4417719503243589 0.9973866171985452 1.0000   
         C         C         1.0       0.10797726167568394           0.5213549204686447 0.9873542168001166 1.0000   
         C         C         1.0       0.10630485717520048           0.4966616188553693 0.9820957882739919 1.0000   
         C         C         1.0       0.08024555345057376           0.4710826024397587 0.9816785024402834 1.0000   
         C         C         1.0       0.05494898753100763           0.4704746930794463 0.98693970297419   1.0000   
         C         C         1.0       0.05702708326421716           0.49607041276189906          0.9902284039861602 1.0000   
         C         C         1.0       0.08269652808696136           0.5207920576991111 0.9905410556037815 1.0000   
         C         C         1.0       0.9966070989476666  0.4322514449701317  0.9847603894392274 1.0000   
         C         C         1.0       0.9722052988499169  0.40781623051332555           0.9951795197202116 1.0000   
         C         C         1.0       0.9455417775722793  0.3979770290243909  0.9866266893855984 1.0000   
         C         C         1.0       0.9413788650601931  0.4131175136112701  0.9676865310083228 1.0000   
         C         C         1.0       0.9645569427828983  0.43713562128575084           0.9558291709610895 1.0000   
         C         C         1.0       0.9922252304526367  0.44705154692197646           0.9637785261980333 1.0000   
         C         C         1.0       0.025698038493754183          0.4049934003386888 0.9634482202508071 1.0000   
         C         C         1.0       0.02584271237538127           0.38081252172407853          0.9556575152855198 1.0000   
         C         C         1.0       0.030781018269122606          0.3663894590008501 0.9753494907930107 1.0000   
         C         C         1.0       0.03578260668471933           0.3761317582127277 0.0027326354467984704        1.0000   
         C         C         1.0       0.033130291579559046          0.3987429529598245 0.01056158370950655          1.0000   
         C         C         1.0       0.027399368554294368          0.4137363380359893 0.9912585056513007 1.0000   
         H         H         1.0       0.951596477032044   0.4006380341631102  0.6309872118794757 1.0000   
         H         H         1.0       0.9832038132523229  0.41351983365486966           0.5476577224366026 1.0000   
         H         H         1.0       0.029502292404510945          0.42786631211039217          0.563097196284784  1.0000   
         H         H         1.0       0.0023070933310379046         0.4202876657362641 0.6460070162401601 1.0000   
         H         H         1.0       0.9583406284772671  0.44207565824168815           0.5400109249204041 1.0000   
         H         H         1.0       0.03177754290130541           0.5607978597999498 0.08636300858630541          1.0000   
         H         H         1.0       0.9283948689421611  0.47524041342682755           0.6188493047683441 1.0000   
         H         H         1.0       0.9240130548568776  0.429520927231436   0.6214164878367429 1.0000   
         H         H         1.0       0.9398979156876894  0.3544014352368924  0.561070171434489  1.0000   
         H         H         1.0       0.9424543666045754  0.340748786403842   0.5149764813642824 1.0000   
         H         H         1.0       0.9879830075910626  0.45315868071349763           0.028096187532746786         1.0000   
         H         H         1.0       0.9084669365198657  0.40531207981363726           0.5272212219465984 1.0000   
         H         H         1.0       0.12439224034350466           0.4932763484722485 0.9787728314532234 1.0000   
         H         H         1.0       0.08241357178021103           0.4530865191795623 0.9813946977537635 1.0000   
         H         H         1.0       0.03722542183518662           0.49472681926313383          0.9967315559302459 1.0000   
         H         H         1.0       0.08271573061026902           0.5406520514558338 0.9931173350605736 1.0000   
         H         H         1.0       0.9748538430872694  0.39616057174965685           0.011646878948874173         1.0000   
         H         H         1.0       0.9275526815231918  0.3804294339115826  0.9969315399418213 1.0000   
         H         H         1.0       0.9625707227118766  0.4500155897513236  0.9396269750720044 1.0000   
         H         H         1.0       0.012143030372840036          0.465465198820232  0.9547282323110995 1.0000   
         H         H         1.0       0.025662542439933933          0.41627730186205275          0.9458226174901413 1.0000   
         H         H         1.0       0.023951686933661342          0.37519251661559905          0.9347409579599676 1.0000   
         H         H         1.0       0.8753073342390241  0.2617912014412831  0.4733535040905946 1.0000   
         H         H         1.0       0.8870779587199576  0.3119203346622811  0.477037947290083  1.0000   
         C         C         1.0       0.9124498087890349  0.3818924860971047  0.9133657884456408 1.0000   
         C         C         1.0       0.9050943773048916  0.3947519858606718  0.8944327422427163 1.0000   
         C         C         1.0       0.9225210111898424  0.407173021977817   0.8707914658784228 1.0000   
         C         C         1.0       0.948381943880282   0.4089159503028523  0.8673187955062578 1.0000   
         C         C         1.0       0.9529646073186194  0.3917068477660967  0.8844843301746951 1.0000   
         C         C         1.0       0.9344285863023151  0.3781740741903111  0.9066648719664211 1.0000   
         H         H         1.0       0.8861285833229197  0.3974916073591659  0.8978428431618174 1.0000   
         H         H         1.0       0.9180089482277418  0.42014929626853603           0.8583677610708759 1.0000   
         H         H         1.0       0.9667824367806197  0.382770587319703   0.8784032007484598 1.0000   
         H         H         1.0       0.9418760918664248  0.36892586451820153           0.9217509603952588 1.0000   
         C         C         1.0       0.012355571259203491          0.445125091257776  0.8834932442596154 1.0000   
         C         C         1.0       0.003457128552314086          0.43917418376166373          0.8557869312836416 1.0000   
         C         C         1.0       0.023936951419160208          0.4448626808034821 0.8355261412875615 1.0000   
         C         C         1.0       0.051883349723578935          0.45654674284357327          0.8417152006616274 1.0000   
         C         C         1.0       0.05990551445511851           0.4623265695359438 0.8694903764085671 1.0000   
         C         C         1.0       0.040601552373980075          0.45714985907130345          0.8896015025717876 1.0000   
         C         C         1.0       0.972060117685027   0.42822561324693365           0.8459730312752836 1.0000   
         C         C         1.0       0.9763464634227956  0.4590692602980351  0.8410838724202947 1.0000   
         C         C         1.0       0.9838676805797404  0.47223692284880897           0.815794854382099  1.0000   
         C         C         1.0       0.9848617833216744  0.49698185695512415           0.8122151560611675 1.0000   
         C         C         1.0       0.9789289400117     0.5092876550536287  0.8332424519247349 1.0000   
         C         C         1.0       0.9698011370613456  0.4955738451096509  0.8586366616756866 1.0000   
         C         C         1.0       0.9694969844603373  0.4711592998132917  0.8629443991487998 1.0000   
         C         C         1.0       0.9692315328880661  0.3871440924890514  0.8169587174832074 1.0000   
         C         C         1.0       0.9633073998869276  0.37228424226415363           0.7920504669479393 1.0000   
         C         C         1.0       0.9467140774186975  0.37428019325429324           0.7716883361598759 1.0000   
         C         C         1.0       0.9323046979172509  0.3875194950562981  0.7786239355713948 1.0000   
         C         C         1.0       0.9422418829123014  0.40614171561717777           0.8005754981745268 1.0000   
         C         C         1.0       0.9601320156990051  0.4061808678941774  0.8198341579720901 1.0000   
         C         C         1.0       0.9487306133338478  0.3650409747091561  0.7412627538173476 1.0000   
         C         C         1.0       0.03722252858249723           0.43655967093204273          0.7315705513601731 1.0000   
         C         C         1.0       0.03239463656806916           0.4099578886801211 0.730318892004217  1.0000   
         C         C         1.0       0.0045131188762619606         0.38717918387332334          0.7336843266050502 1.0000   
         C         C         1.0       0.9808348537650309  0.38999391110115456           0.7334614365214774 1.0000   
         C         C         1.0       0.9869892106295736  0.41773313824956654           0.7312760154692041 1.0000   
         C         C         1.0       0.014345085422117149          0.4398757263403827 0.7282157697735484 1.0000   
         C         C         1.0       0.9233489493327146  0.36163669014871364           0.7228902684788008 1.0000   
         C         C         1.0       0.8960554580969612  0.33819613759659595           0.7271160043786447 1.0000   
         C         C         1.0       0.8732265764166302  0.33453369091829693           0.7122072874833351 1.0000   
         C         C         1.0       0.876753187735125   0.35236937147838127           0.692136279616811  1.0000   
         C         C         1.0       0.9039427072739291  0.3739662347632838  0.6858541900443559 1.0000   
         C         C         1.0       0.9279621892415308  0.37891551433432497           0.6994944265325721 1.0000   
         C         C         1.0       0.9539603626434593  0.3270690012992187  0.715967286781331  1.0000   
         C         C         1.0       0.9511913441464426  0.3007643918647654  0.7134734209485477 1.0000   
         C         C         1.0       0.9367618922526832  0.27970457653173675           0.7337768197727136 1.0000   
         C         C         1.0       0.9289537222499412  0.28751411467896604           0.7585844294326081 1.0000   
         C         C         1.0       0.9325234237064906  0.31396303525000213           0.7614024769272506 1.0000   
         C         C         1.0       0.9444394109277146  0.33385744883362    0.7391743805568706 1.0000   
         H         H         1.0       0.9970873952940442  0.4400958094664282  0.9009295565641352 1.0000   
         H         H         1.0       0.016101734464964754          0.43946203434633724          0.8140207009281543 1.0000   
         H         H         1.0       0.067863802678254   0.459381360333691   0.8264623307055172 1.0000   
         H         H         1.0       0.04604540574860795           0.4592598461085883 0.9116392883610012 1.0000   
         H         H         1.0       0.987963217757552   0.4623862554259245  0.7983729717360222 1.0000   
         H         H         1.0       0.9897068604016761  0.5074582033951243  0.793044188533231  1.0000   
         H         H         1.0       0.9637356006124901  0.5033361848748786  0.8755099658708035 1.0000   
         H         H         1.0       0.9638339593089311  0.4618870366619865  0.8836196095951243 1.0000   
         H         H         1.0       0.9835105040173542  0.38621350943841737           0.8317902394457131 1.0000   
         H         H         1.0       0.9746531579959152  0.361884453587743   0.7908811728971898 1.0000   
         H         H         1.0       0.9195122899500746  0.3893877556317188  0.7624928490799281 1.0000   
         H         H         1.0       0.9320920465445788  0.41768225504960893           0.8058234817600295 1.0000   
         H         H         1.0       0.05007150117000988           0.406901105257478  0.7304319487144884 1.0000   
         H         H         1.0       0.0023907262609325335         0.36654403300553184          0.7378391166197901 1.0000   
         H         H         1.0       0.9676671004806936  0.42032203978749827           0.7326398978729834 1.0000   
         H         H         1.0       0.01845721643134279           0.46145868167013854          0.729035762182665  1.0000   
         H         H         1.0       0.8938897098884757  0.3264027459515107  0.7458510061761112 1.0000   
         H         H         1.0       0.8533449660820468  0.314631296726478   0.7164524704909739 1.0000   
         H         H         1.0       0.9087643869728806  0.3896796206555954  0.6695099498815836 1.0000   
         H         H         1.0       0.9485506378836924  0.3978863168286486  0.6938456708809199 1.0000   
         H         H         1.0       0.9648598835370931  0.343768258451296   0.7000049891234322 1.0000   
         H         H         1.0       0.9557545046004918  0.2947621383306784  0.6940801752195108 1.0000   
         H         H         1.0       0.917346942002801   0.27216776459247977           0.7751675142857766 1.0000   
         H         H         1.0       0.9239033370707715  0.3176550325492164  0.7792495085321635 1.0000   
         C         C         1.0       0.9699273595750303  0.6994883666874024  0.011907865628895786         1.0000   
         C         C         1.0       0.9583185742187802  0.6832343881302732  0.034878869098539544         1.0000   
         C         C         1.0       0.8830471062450405  0.5806616585424778  0.4920999050514696 1.0000   
         C         C         1.0       0.0014016483579117889         0.6811561664596436 0.04025347397263279          1.0000   
         C         C         1.0       0.011797449965813334          0.6964209224787807 0.015293776313127783         1.0000   
         C         C         1.0       0.9956736142957703  0.704340145369067   0.0013881922132372715        1.0000   
         H         H         1.0       0.9393275594515276  0.6792914791155599  0.0452851720201104 1.0000   
         H         H         1.0       0.87521744422182    0.5669288129444737  0.509021529810714  1.0000   
         H         H         1.0       0.03376348713370492           0.7045086706293786 0.008572832695674881         1.0000   
         H         H         1.0       0.004809782141275587          0.7171156375422165 0.9819629585295924 1.0000   
         C         C         1.0       0.05097703972552692           0.6702844618163402 0.02514602350595707          1.0000   
         C         C         1.0       0.05075389988233758           0.6834649601867738 0.04879898221015444          1.0000   
         C         C         1.0       0.9850212157336844  0.639240032577598   0.5232471924736065 1.0000   
         C         C         1.0       0.10255921775463163           0.7060478171508846 0.05317529382251229          1.0000   
         C         C         1.0       0.10229376991224055           0.6939359618975415 0.028492529104780617         1.0000   
         C         C         1.0       0.07691941246188243           0.6747484234734262 0.014749803352571034         1.0000   
         C         C         1.0       0.9301325147301677  0.6094642783345742  0.5170420024823112 1.0000   
         C         C         1.0       0.926430474151617   0.5829361464152747  0.5329732559322715 1.0000   
         C         C         1.0       0.9331638949794135  0.5826998788037915  0.5600772294998881 1.0000   
         C         C         1.0       0.9302251498658886  0.5593893973910765  0.5744190736986762 1.0000   
         C         C         1.0       0.9184147985673858  0.534719203633596   0.5593414758044153 1.0000   
         C         C         1.0       0.9112368685497572  0.5341171051083914  0.5315308036674717 1.0000   
         C         C         1.0       0.9888522444066012  0.6260035275824452  0.06995989172423367          1.0000   
         C         C         1.0       0.9417975578243899  0.6585723930883527  0.5331484819856495 1.0000   
         C         C         1.0       0.9412740665048986  0.6768988554566606  0.5514085300364073 1.0000   
         C         C         1.0       0.9233938551337135  0.6673299828616217  0.5741322170564273 1.0000   
         C         C         1.0       0.9016383697170346  0.6391775848734982  0.5750185984106515 1.0000   
         C         C         1.0       0.9020711458192573  0.6198229297263445  0.5567495715073447 1.0000   
         C         C         1.0       0.9251691796832623  0.6295719417444875  0.5378436892623062 1.0000   
         C         C         1.0       0.9269354077685247  0.6874514542172723  0.5989352910142043 1.0000   
         C         C         1.0       0.01696444415832751           0.7432502906273171 0.6213359562850774 1.0000   
         C         C         1.0       0.9970000068891062  0.7501878476940542  0.6291531342930005 1.0000   
         C         C         1.0       0.9684451633174259  0.7330424918949483  0.6209320334046216 1.0000   
         C         C         1.0       0.9590285292237809  0.7070628581326523  0.6083632871300133 1.0000   
         C         C         1.0       0.9789733401303291  0.7003006514727099  0.603098681871768  1.0000   
         C         C         1.0       0.008369306068237062          0.7182755753949748 0.6083796886885221 1.0000   
         C         C         1.0       0.9146086878171914  0.6727194620353552  0.6288539910752753 1.0000   
         C         C         1.0       0.895829647113727   0.6772846791234348  0.645573924265646  1.0000   
         C         C         1.0       0.8832352104384552  0.6617066572473093  0.6690230037454648 1.0000   
         C         C         1.0       0.8889195575230865  0.6424170507239456  0.6778158811193926 1.0000   
         C         C         1.0       0.906583614886365   0.6372518356996724  0.6624325966992877 1.0000   
         C         C         1.0       0.918138332028384   0.6514542644232277  0.6381973417925987 1.0000   
         C         C         1.0       0.9263727425886144  0.7286775603646442  0.5703351110744211 1.0000   
         C         C         1.0       0.9129948765108619  0.7350508566785765  0.5511947446161243 1.0000   
         C         C         1.0       0.8836526007670772  0.71837885605335    0.5483122041808588 1.0000   
         C         C         1.0       0.8687036927710654  0.6932123545557249  0.5625323572722872 1.0000   
         C         C         1.0       0.8823116350973287  0.6853484530705607  0.5818360484281059 1.0000   
         C         C         1.0       0.912372084255822   0.7029345390343094  0.5854095427034393 1.0000   
         H         H         1.0       0.03249880766485047           0.6593829344443483 0.01205092051130019          1.0000   
         H         H         1.0       0.9818198320986761  0.6464712005965962  0.542118282709087  1.0000   
         H         H         1.0       0.12295646944345738           0.7203241993283501 0.0625139277274327 1.0000   
         H         H         1.0       0.07888603503626465           0.664980057519143  0.9975297614365848 1.0000   
         H         H         1.0       0.9428604767700264  0.6022102381056808  0.573186120240379  1.0000   
         H         H         1.0       0.9369394617193127  0.5618808549827712  0.5954755053042456 1.0000   
         H         H         1.0       0.9633990811309315  0.5808613171308937  0.07559785798073193          1.0000   
         H         H         1.0       0.9773759576261758  0.6228170902013735  0.05093175044594278          1.0000   
         H         H         1.0       0.9550896229218248  0.665774753185407   0.5147364230709803 1.0000   
         H         H         1.0       0.9560626486607057  0.7003502887752311  0.5477683860565692 1.0000   
         H         H         1.0       0.8835976475793148  0.6305866732115468  0.5892612636611086 1.0000   
         H         H         1.0       0.8845216453844819  0.5977052158169802  0.5567768376564038 1.0000   
         H         H         1.0       0.004142229509611592          0.7706974630325839 0.6411935058156052 1.0000   
         H         H         1.0       0.9534786128028218  0.7392124760241436  0.6257473326011999 1.0000   
         H         H         1.0       0.972651385666493   0.6806270930626618  0.5917701566977505 1.0000   
         H         H         1.0       0.024089257070785127          0.7138874054504988 0.6031425228143186 1.0000   
         H         H         1.0       0.8901867803456861  0.6924963520345758  0.63952408579692   1.0000   
         H         H         1.0       0.86610217483417    0.6627529960145052  0.6800820378004633 1.0000   
         H         H         1.0       0.9125705775573808  0.622147015048481   0.6671768542846945 1.0000   
         H         H         1.0       0.928947205886523   0.6437352028060523  0.6245238082350711 1.0000   
         H         H         1.0       0.9497085729189281  0.7426923625629953  0.5700752856841018 1.0000   
         H         H         1.0       0.9243391903407289  0.752511821080542   0.5386222764711012 1.0000   
         H         H         1.0       0.8448324103103259  0.680122984067202   0.5596780344930156 1.0000   
         H         H         1.0       0.8704871712428436  0.6647116141716254  0.5916593739480425 1.0000   
         C         C         1.0       0.9043925417060258  0.6427208139808254  0.7465022775256053 1.0000   
         C         C         1.0       0.8987780567224707  0.6298883659016253  0.7719665280125974 1.0000   
         C         C         1.0       0.9211952192411875  0.6299139289605248  0.7850659799915537 1.0000   
         C         C         1.0       0.9496291119106409  0.6447917946551093  0.7740981783778296 1.0000   
         C         C         1.0       0.954233181091517   0.6599910434420703  0.7506489494049833 1.0000   
         C         C         1.0       0.9321371547477094  0.659555224931487   0.7365993652497834 1.0000   
         H         H         1.0       0.8769356508471353  0.6167043601631662  0.7792898112288601 1.0000   
         H         H         1.0       0.9136271702280153  0.617739665245963   0.8038638836812206 1.0000   
         H         H         1.0       0.9751184125983593  0.6720021255424893  0.7408893552500491 1.0000   
         H         H         1.0       0.9381234027070358  0.6730921245456574  0.7183761731183305 1.0000   
         C         C         1.0       0.9994213605288044  0.6373222082702049  0.7457030126484495 1.0000   
         C         C         1.0       0.0009585941100732001         0.6477798546603479 0.7729028969829109 1.0000   
         C         C         1.0       0.02758745983401264           0.6579692219670602 0.7856814615672186 1.0000   
         C         C         1.0       0.049229925693614326          0.6554112353505487 0.7750769361269018 1.0000   
         C         C         1.0       0.047198549413832176          0.6459120583272676 0.7493738705817866 1.0000   
         C         C         1.0       0.023603196650133742          0.6394243094212735 0.7332825258280988 1.0000   
         C         C         1.0       0.973298318170235   0.6435918469152698  0.7906409553033359 1.0000   
         C         C         1.0       0.962703795569093   0.613394970406108   0.8034190775655743 1.0000   
         C         C         1.0       0.972421505411054   0.6098679484692301  0.8275516323265024 1.0000   
         C         C         1.0       0.9657267865803074  0.5838126659124451  0.8378163349547568 1.0000   
         C         C         1.0       0.9496963380958114  0.5601108485267732  0.8217680215991695 1.0000   
         C         C         1.0       0.9381338270998221  0.5618839003475573  0.7977783592243836 1.0000   
         C         C         1.0       0.9465616932340988  0.5886242799279389  0.7880498698703952 1.0000   
         C         C         1.0       0.9998092820109267  0.6971117783738227  0.8044641496438555 1.0000   
         C         C         1.0       0.008890688705237793          0.718182325655616  0.8233958862160305 1.0000   
         C         C         1.0       0.9985008487584377  0.7123404254951375  0.8500319835897837 1.0000   
         C         C         1.0       0.9783261297421443  0.6846594152380735  0.8569095758472915 1.0000   
         C         C         1.0       0.9672864168544791  0.6636927498856781  0.837429370829033  1.0000   
         C         C         1.0       0.9802505943525556  0.6689783863016402  0.8117529589984552 1.0000   
         C         C         1.0       0.009925349592990074          0.7368906302520821 0.8733732153329254 1.0000   
         C         C         1.0       0.09113369501289777           0.740637855665116  0.880130613000003  1.0000   
         C         C         1.0       0.08849958053534668           0.7605383068375613 0.8658482908484774 1.0000   
         C         C         1.0       0.06341463250641624           0.7606060708398897 0.8654507350594616 1.0000   
         C         C         1.0       0.03979319174905473           0.7402864676373657 0.8796939364118441 1.0000   
         C         C         1.0       0.041164844973527646          0.7199442979054331 0.8937770531893215 1.0000   
         C         C         1.0       0.06697200760910224           0.7212264750316628 0.8953541521645231 1.0000   
         C         C         1.0       0.991500848655777   0.7318729348878497  0.9005277332591365 1.0000   
         C         C         1.0       0.9616862658622897  0.7143338351150408  0.9011580213999354 1.0000   
         C         C         1.0       0.9473606384308564  0.7084745550256721  0.9255714905730843 1.0000   
         C         C         1.0       0.962354874931445   0.7218469895226114  0.9497020413715095 1.0000   
         C         C         1.0       0.9906732770245319  0.7431669513951408  0.9479596653637714 1.0000   
         C         C         1.0       0.004749868675558266          0.7470461142651982 0.9237998447250885 1.0000   
         C         C         1.0       0.028647895041848948          0.7902638164283273 0.8706338422003755 1.0000   
         C         C         1.0       0.026857485973278195          0.8121342507216018 0.8619859843850908 1.0000   
         C         C         1.0       0.006127501801197033          0.8082843184573182 0.8434508170860309 1.0000   
         C         C         1.0       0.9866592532337124  0.7805462046330534  0.8350116218607412 1.0000   
         C         C         1.0       0.9881954146169478  0.7583162840695922  0.844872045220194  1.0000   
         C         C         1.0       0.009477866282042946          0.7623249054863036 0.8627744738785509 1.0000   
         H         H         1.0       0.97869908325087    0.6271837763335558  0.7362031993068421 1.0000   
         H         H         1.0       0.02655770826922454           0.6648745005784142 0.8064569381557741 1.0000   
         H         H         1.0       0.06802338775130436           0.6621255194078476 0.7874550363408833 1.0000   
         H         H         1.0       0.0235360791641957  0.6351121617510125  0.7125556787194148 1.0000   
         H         H         1.0       0.9860071322528982  0.6290403236634374  0.8390129574226012 1.0000   
         H         H         1.0       0.974595337327373   0.5831573757646958  0.8566236604262782 1.0000   
         H         H         1.0       0.9271130886523092  0.5441062426273804  0.7844594717199883 1.0000   
         H         H         1.0       0.9395432352314035  0.5880675328849971  0.7661877171027243 1.0000   
         H         H         1.0       0.008876049714576843          0.7003317739722937 0.783250084704974  1.0000   
         H         H         1.0       0.02331124916902315           0.7384623348660548 0.8150640930842304 1.0000   
         H         H         1.0       0.9716354604103186  0.678126899558043   0.8788793646558519 1.0000   
         H         H         1.0       0.9512318091412871  0.6418343294629466  0.8439838428207839 1.0000   
         H         H         1.0       0.10712791646250021           0.7763589619743675 0.8529056133573408 1.0000   
         H         H         1.0       0.06222653756875581           0.7750643154580242 0.8505584463417758 1.0000   
         H         H         1.0       0.021653005914344936          0.7016808418315555 0.905036394662426  1.0000   
         H         H         1.0       0.0673698716595544  0.7062243967105876  0.9108891834621795 1.0000   
         H         H         1.0       0.9500383250964829  0.7048329145428069  0.8821232928372267 1.0000   
         H         H         1.0       0.9243143174938898  0.6955936593828322  0.924465880144646  1.0000   
         H         H         1.0       0.0031062503715673095         0.7570985216893863 0.9651852171350739 1.0000   
         H         H         1.0       0.026741941739865993          0.7637309691277606 0.9259477731390985 1.0000   
         H         H         1.0       0.047426702308513535          0.7962004604835338 0.8824520755080467 1.0000   
         H         H         1.0       0.042386838264867555          0.8331204458147012 0.8696222160908104 1.0000   
         H         H         1.0       0.9702179910459001  0.7768698122518718  0.8189818282805308 1.0000   
         H         H         1.0       0.9728212552287538  0.7363340907980125  0.8380861247748325 1.0000   
         C         C         1.0       0.26469912055747835           0.7390327049541769 0.7140817680821897 1.0000   
         C         C         1.0       0.2654551318753945  0.7342264053398979  0.6855025773470219 1.0000   
         C         C         1.0       0.23924185209378449           0.7178994629087051 0.672212296928373  1.0000   
         C         C         1.0       0.21283559489835596           0.7038158836581498 0.6860380944700083 1.0000   
         C         C         1.0       0.21284964790770886           0.7077966244529608 0.7136097557708334 1.0000   
         C         C         1.0       0.23868799251705072           0.7247781306814042 0.7271887032637839 1.0000   
         H         H         1.0       0.28550385034202463           0.7453774957899657 0.6739289417356291 1.0000   
         H         H         1.0       0.24160640916579923           0.7172049395027869 0.6500632057535451 1.0000   
         H         H         1.0       0.19454113807948833           0.6976807603285549 0.7282086814484752 1.0000   
         H         H         1.0       0.23664460754241004           0.7264773583892414 0.7487490828775546 1.0000   
         C         C         1.0       0.1498962676059796  0.6479847322138377  0.7045739314388273 1.0000   
         C         C         1.0       0.15294478478749815           0.6622106337888134 0.68038562936068   1.0000   
         C         C         1.0       0.12829535648280707           0.6557719314117705 0.6658817576991803 1.0000   
         C         C         1.0       0.10227704929149961           0.6405792718801515 0.6788076671679173 1.0000   
         C         C         1.0       0.0986897211596917  0.6300098149271032  0.7057266473247945 1.0000   
         C         C         1.0       0.12402937849512441           0.6352346231681936 0.7186616255652334 1.0000   
         C         C         1.0       0.1839450876624077  0.6857832549538265  0.6675008680230959 1.0000   
         C         C         1.0       0.1874992510393075  0.6658349782697788  0.6458503243178406 1.0000   
         C         C         1.0       0.1765715308235645  0.6601914686323154  0.6197560524198485 1.0000   
         C         C         1.0       0.1762411112321539  0.6399907312407092  0.6035075708223967 1.0000   
         C         C         1.0       0.18719346432575912           0.624126138997645  0.6128134519020005 1.0000   
         C         C         1.0       0.19808767623060605           0.6293618143595062 0.6399049468421092 1.0000   
         C         C         1.0       0.19876582325692888           0.6501389184190711 0.6553418722513997 1.0000   
         C         C         1.0       0.1725186383903031  0.7235325621351532  0.6769955986383827 1.0000   
         C         C         1.0       0.1750262759605753  0.7489326041317563  0.6720931514827398 1.0000   
         C         C         1.0       0.18372033560146872           0.7623457035270446 0.6465318338432618 1.0000   
         C         C         1.0       0.1887594216010437  0.7482173583142674  0.6256941165069344 1.0000   
         C         C         1.0       0.18917701252884978           0.7234643568613324 0.6310207893635235 1.0000   
         C         C         1.0       0.18170069118078497           0.7111823836332896 0.6580317074333646 1.0000   
         C         C         1.0       0.19120689775659952           0.7940834958798649 0.642444556944955  1.0000   
         C         C         1.0       0.09874004497810401           0.7663990875717815 0.6377472116391113 1.0000   
         C         C         1.0       0.11380811748159504           0.7782024419635614 0.6618050734458369 1.0000   
         C         C         1.0       0.14306998355435233           0.7874833016849822 0.6623374769773581 1.0000   
         C         C         1.0       0.1574264466601248  0.7841849944793386  0.6413106700416629 1.0000   
         C         C         1.0       0.14212106841322053           0.7729249588946739 0.6167736448625261 1.0000   
         C         C         1.0       0.11434363420194787           0.7658457204577022 0.6151603368931257 1.0000   
         C         C         1.0       0.20803785157098706           0.8129829524385328 0.6161343443079556 1.0000   
         C         C         1.0       0.2332192334348093  0.8144751698127026  0.6058371676555265 1.0000   
         C         C         1.0       0.24999512902962012           0.8330779659877248 0.5850429255754948 1.0000   
         C         C         1.0       0.24341248864580206           0.8517829895827593 0.5734289798162402 1.0000   
         C         C         1.0       0.22066697802733748           0.8519882123962611 0.5844631960013372 1.0000   
         C         C         1.0       0.20320942359441937           0.8334515006662395 0.6044808577938832 1.0000   
         C         C         1.0       0.21126453709658136           0.838493461682026  0.6756196009600394 1.0000   
         C         C         1.0       0.23134691887340808           0.8567584831313346 0.6937216567077427 1.0000   
         C         C         1.0       0.2528316393534518  0.8530452087545624  0.7023106484344682 1.0000   
         C         C         1.0       0.25329667421236235           0.8296704295402483 0.6924678999013506 1.0000   
         C         C         1.0       0.23107746196041967           0.8097763236045629 0.6764072953210816 1.0000   
         C         C         1.0       0.21085629418566576           0.8147181856511762 0.666240629868959  1.0000   
         H         H         1.0       0.16937296687142822           0.6527497044775119 0.7153527696699947 1.0000   
         H         H         1.0       0.13034862390636587           0.6641342361566734 0.6454172464390323 1.0000   
         H         H         1.0       0.08256004958819392           0.6371690530509244 0.6685124381644476 1.0000   
         H         H         1.0       0.12434039137406615           0.6314994084815423 0.7404674869788567 1.0000   
         H         H         1.0       0.16658974165309115           0.6710379544656553 0.613153966231876  1.0000   
         H         H         1.0       0.1673062879998997  0.6362697927258876  0.5829072867191651 1.0000   
         H         H         1.0       0.2034138356121976  0.614709594280148   0.6485828413876037 1.0000   
         H         H         1.0       0.20713360545635048           0.653725131284823  0.6757200158282861 1.0000   
         H         H         1.0       0.16778962284880325           0.7143825827648783 0.6973094717361064 1.0000   
         H         H         1.0       0.16751564087888676           0.7576624142561564 0.6874627909722706 1.0000   
         H         H         1.0       0.19447866888257653           0.7569206652667659 0.6054950901630661 1.0000   
         H         H         1.0       0.19661066394512056           0.7154259087784574 0.614799163016475  1.0000   
         H         H         1.0       0.10367125475998995           0.7808692363015655 0.681783295663059  1.0000   
         H         H         1.0       0.15428853298863374           0.7965532943338007 0.6819967024410373 1.0000   
         H         H         1.0       0.15228340903546922           0.7697839719654944 0.5986593198080348 1.0000   
         H         H         1.0       0.10432321831834648           0.7594659574730104 0.5946062581059632 1.0000   
         H         H         1.0       0.24073597897114413           0.8011558632770598 0.6135221425965884 1.0000   
         H         H         1.0       0.2669648606293764  0.8312270743653581  0.5773662281884031 1.0000   
         H         H         1.0       0.2167262200164399  0.8667355780276907  0.57264567305571   1.0000   
         H         H         1.0       0.18416840201756682           0.8333443417842189 0.6095036595800369 1.0000   
         H         H         1.0       0.19733254397842173           0.844043176277864  0.6660383395146368 1.0000   
         H         H         1.0       0.23349241328138248           0.877006657665906  0.6975171749859068 1.0000   
         H         H         1.0       0.2697775601963978  0.8257160735711422  0.699678626015049  1.0000   
         H         H         1.0       0.2332991554587092  0.7930327071305086  0.6694921360466405 1.0000   
         C         C         1.0       0.33333044373041465           0.8286920846216875 0.9850380476350072 1.0000   
         C         C         1.0       0.3325409237798773  0.807006359279411   0.971689554381769  1.0000   
         C         C         1.0       0.3096323427148967  0.7887029765097144  0.9547910581624114 1.0000   
         C         C         1.0       0.285141430691291   0.7906234018569763  0.9562134664255507 1.0000   
         C         C         1.0       0.2864221373761314  0.8117649526272197  0.9715303423027103 1.0000   
         C         C         1.0       0.31061581484688466           0.8312203121230795 0.9859410976402657 1.0000   
         H         H         1.0       0.352950316926117   0.807213028331279   0.9738382648183549 1.0000   
         H         H         1.0       0.31138685374668    0.774095133186843   0.9408348933323426 1.0000   
         H         H         1.0       0.2682839381976964  0.8146992722210522  0.9722894897848866 1.0000   
         H         H         1.0       0.3104267927567263  0.8480973030633969  0.9995093588952902 1.0000   
         C         C         1.0       0.22355208230489365           0.7596297952585144 0.9850441322253963 1.0000   
         C         C         1.0       0.22570263581423985           0.760307924923697  0.9562172343956006 1.0000   
         C         C         1.0       0.20014213920741686           0.7518521368267667 0.9430371949346479 1.0000   
         C         C         1.0       0.1747776596880089  0.7448627355485019  0.9556682669414338 1.0000   
         C         C         1.0       0.172953476478724   0.7427092568007151  0.9834513081096318 1.0000   
         C         C         1.0       0.1970237915759921  0.7505198521059588  0.9981334631575776 1.0000   
         C         C         1.0       0.2546510752191674  0.7677497524893299  0.9409732946501211 1.0000   
         C         C         1.0       0.24631214930905798           0.7356146653791902 0.9384980495874691 1.0000   
         C         C         1.0       0.23028633861416048           0.7184843078969796 0.9160520678239256 1.0000   
         C         C         1.0       0.2258480010288688  0.6917409387494036  0.9124679557803969 1.0000   
         C         C         1.0       0.23599464447703322           0.6811901666621896 0.9317294337833694 1.0000   
         C         C         1.0       0.2522248332451475  0.6978028528079563  0.9522483242738837 1.0000   
         C         C         1.0       0.2554626521675491  0.7240707152542494  0.9577707543752054 1.0000   
         C         C         1.0       0.2539435737335642  0.8060748455500901  0.9095740263569771 1.0000   
         C         C         1.0       0.25633657336875265           0.8188214060150187 0.8844748041854934 1.0000   
         C         C         1.0       0.26360390587473526           0.8100369131626232 0.8605884489988803 1.0000   
         C         C         1.0       0.27249475711467125           0.791297731791566  0.8635488504889606 1.0000   
         C         C         1.0       0.2723806114986778  0.7802803956545014  0.8888439936930628 1.0000   
         C         C         1.0       0.2612016351624882  0.7855459247201806  0.9124889256009566 1.0000   
         C         C         1.0       0.2547300496794306  0.81738445006629    0.8307052173007727 1.0000   
         C         C         1.0       0.1609871716886026  0.7604306965636912  0.8459131873623746 1.0000   
         C         C         1.0       0.17411765155851344           0.7899542342868171 0.8478261397395463 1.0000   
         C         C         1.0       0.2030520733179025  0.8082266428290253  0.843400912302588  1.0000   
         C         C         1.0       0.21975048250168414           0.7977154243124521 0.8356644721927021 1.0000   
         C         C         1.0       0.20713275639791326           0.7688445160474753 0.8353720982368843 1.0000   
         C         C         1.0       0.17840725320458262           0.7509625999831281 0.8390188646453256 1.0000   
         C         C         1.0       0.26550992084574154           0.8088263050923608 0.804791006327401  1.0000   
         C         C         1.0       0.2946625999126776  0.81732756627044    0.8020447948314648 1.0000   
         C         C         1.0       0.3046816026423099  0.811153926955322   0.7788709809399742 1.0000   
         C         C         1.0       0.2861553015959925  0.797698761348612   0.7574084345731288 1.0000   
         C         C         1.0       0.2570032822116096  0.7877914372251154  0.7607543369021386 1.0000   
         C         C         1.0       0.24750000604380848           0.793944524571938  0.7837880454218398 1.0000   
         C         C         1.0       0.25393485515203545           0.8596580702482678 0.8090686374932785 1.0000   
         C         C         1.0       0.26732869386921465           0.8876811113112208 0.801117743526362  1.0000   
         C         C         1.0       0.29458990424676446           0.9059191232893805 0.8098597068632787 1.0000   
         C         C         1.0       0.3088284186071042  0.8971885092523194  0.8263372157726178 1.0000   
         C         C         1.0       0.29516395576080307           0.8692471226146273 0.8342115479624603 1.0000   
         C         C         1.0       0.26755234692896485           0.8501731272781767 0.8257747031190356 1.0000   
         H         H         1.0       0.24069322997356685           0.762236907235324  0.9971420000890631 1.0000   
         H         H         1.0       0.2012016405551861  0.7507078262519917  0.9203739293370097 1.0000   
         H         H         1.0       0.1540158892252079  0.7364144572578858  0.9443670848082042 1.0000   
         H         H         1.0       0.19643509181757857           0.7484495416507458 0.021054021523543742         1.0000   
         H         H         1.0       0.2234414249417267  0.7272901833803903  0.9006094686680847 1.0000   
         H         H         1.0       0.21267869245739676           0.679284860759059  0.8956250342474017 1.0000   
         H         H         1.0       0.26009127566729473           0.6882110673977161 0.9663651608585104 1.0000   
         H         H         1.0       0.2673349232303131  0.7365448978138622  0.9753614394259541 1.0000   
         H         H         1.0       0.2421629673814097  0.8082089153089658  0.9267550470326705 1.0000   
         H         H         1.0       0.24609421854591848           0.8307538847494258 0.8840215680710352 1.0000   
         H         H         1.0       0.2760995175866057  0.7814337936017367  0.8466593435006021 1.0000   
         H         H         1.0       0.2772624201575296  0.7627521055010787  0.8880501839641101 1.0000   
         H         H         1.0       0.16054830962207725           0.7978568038195435 0.8551988265796507 1.0000   
         H         H         1.0       0.21130263317892792           0.8307966496476313 0.8469078247591272 1.0000   
         H         H         1.0       0.21765328845984494           0.7566552753045768 0.8338409839209009 1.0000   
         H         H         1.0       0.16838868274267937           0.7286077735406018 0.8338030380013218 1.0000   
         H         H         1.0       0.30963057517152187           0.8282380189782976 0.8182606214713835 1.0000   
         H         H         1.0       0.3266923103079217  0.8189983467927904  0.7800340070045223 1.0000   
         H         H         1.0       0.2414256746381411  0.7733441848515973  0.7454729659832265 1.0000   
         H         H         1.0       0.2254023696854819  0.7858100323358854  0.780931670938639  1.0000   
         H         H         1.0       0.23627220824567413           0.8462435917099433 0.7993644049009397 1.0000   
         H         H         1.0       0.25566361012592864           0.8930645020973652 0.7862814641528572 1.0000   
         H         H         1.0       0.32812359213141107           0.9118548744775431 0.8364252046805792 1.0000   
         H         H         1.0       0.30942864995939207           0.8624037247311326 0.842240136050652  1.0000   
         C         C         1.0       0.24310714743505235           0.45661250363789047          0.6092059222832881 1.0000   
         C         C         1.0       0.2522666450775079  0.48522285572043056           0.6108362826705732 1.0000   
         C         C         1.0       0.23193939332818023           0.4921547701428236 0.6180301441006407 1.0000   
         C         C         1.0       0.20413326289468867           0.470950200941316  0.6265329390652793 1.0000   
         C         C         1.0       0.19629037459501777           0.44319031447995677          0.6277885943007183 1.0000   
         C         C         1.0       0.21588208338851023           0.43628193550742767          0.6186846342697355 1.0000   
         H         H         1.0       0.2728322208626413  0.5019884707985209  0.6011456879514772 1.0000   
         H         H         1.0       0.236869760801593   0.51258554656188    0.615445525096551  1.0000   
         H         H         1.0       0.1749969584522415  0.42570245921470523           0.6315777797931943 1.0000   
         H         H         1.0       0.2085968415751159  0.4143666875062806  0.6180206943005715 1.0000   
         C         C         1.0       0.14069881888682592           0.4474490871826094 0.607715990564332  1.0000   
         C         C         1.0       0.1513049908333565  0.4641551926436073  0.6311571777469829 1.0000   
         C         C         1.0       0.12995768968985585           0.4628829033229862 0.6482664698856508 1.0000   
         C         C         1.0       0.1012957288729456  0.44527631338260626           0.6446736910512768 1.0000   
         C         C         1.0       0.09203535133863104           0.43217204530572956          0.6195237127938    1.0000   
         C         C         1.0       0.1122039801216506  0.43278140253689756           0.6020955452701017 1.0000   
         C         C         1.0       0.18508880657178003           0.4823432307565781 0.6405180418419629 1.0000   
         C         C         1.0       0.18889995923354472           0.511278911923147  0.6294260953303966 1.0000   
         C         C         1.0       0.18686888891587788           0.5303142254412867 0.6464384391223327 1.0000   
         C         C         1.0       0.18938848215942825           0.5542056907809266 0.6364350521624734 1.0000   
         C         C         1.0       0.19552639854217735           0.5614312442788385 0.6091274908738936 1.0000   
         C         C         1.0       0.19893848570139783           0.5440235886985288 0.5913411074383744 1.0000   
         C         C         1.0       0.1956504534786174  0.5190123299569702  0.6013380222420741 1.0000   
         C         C         1.0       0.17319124041711406           0.45355871567654504          0.6861761100767242 1.0000   
         C         C         1.0       0.17569045291514182           0.45214719133235054          0.714878060324857  1.0000   
         C         C         1.0       0.1919272054505513  0.47615448994269927           0.7294332396678929 1.0000   
         C         C         1.0       0.2081001048509325  0.5006704577556317  0.7151333563961081 1.0000   
         C         C         1.0       0.20725958058355534           0.5029652102346603 0.687927423377893  1.0000   
         C         C         1.0       0.1878623921310965  0.47910445940487845           0.6726529389728785 1.0000   
         C         C         1.0       0.19116692640611638           0.47511725209122346          0.7629574333353971 1.0000   
         C         C         1.0       0.10889110584261898           0.47228324029846475          0.7677029695899874 1.0000   
         C         C         1.0       0.10843514250433141           0.44859553623523496          0.7736358292500376 1.0000   
         C         C         1.0       0.13466536948677685           0.4495785554568087 0.7748345940196232 1.0000   
         C         C         1.0       0.1611874694000443  0.4746123935995701  0.7696117343158866 1.0000   
         C         C         1.0       0.16093403761681663           0.49906218641490896          0.7649661043622307 1.0000   
         C         C         1.0       0.13436294722115108           0.4968994301058121 0.7619244483294312 1.0000   
         C         C         1.0       0.22022750319387027           0.5005651816991138 0.7750771094070842 1.0000   
         C         C         1.0       0.24641669033067196           0.5041941231096603 0.7660634361365277 1.0000   
         C         C         1.0       0.27060537493953823           0.5199257259732213 0.7813805981265823 1.0000   
         C         C         1.0       0.27211765655991776           0.5385597733737654 0.8003854639052679 1.0000   
         C         C         1.0       0.24754674189315692           0.5379761860208885 0.8082362272068786 1.0000   
         C         C         1.0       0.2214249031363861  0.5177398869628993  0.7962520541034971 1.0000   
         C         C         1.0       0.1818598154225497  0.44274717266414393           0.805504790816262  1.0000   
         C         C         1.0       0.18071058797881356           0.42069120887693034          0.8195218566381673 1.0000   
         C         C         1.0       0.1919222960313832  0.4066278309144798  0.8067951153800008 1.0000   
         C         C         1.0       0.20274480767907896           0.4133869487350815 0.7804278483816987 1.0000   
         C         C         1.0       0.20260385376608483           0.435055995855909  0.7664967581738484 1.0000   
         C         C         1.0       0.19182654284240433           0.44980206418921354          0.7793503953502027 1.0000   
         H         H         1.0       0.15613116475453545           0.4461763336381733 0.5942771869765706 1.0000   
         H         H         1.0       0.13724219511742392           0.4741196523512943 0.6671982077828655 1.0000   
         H         H         1.0       0.08615688216489585           0.4425844611932255 0.6615015988247924 1.0000   
         H         H         1.0       0.10626403310195925           0.4214193266335405 0.5819307324688536 1.0000   
         H         H         1.0       0.17922619485372404           0.5237918559603877 0.6663097949903682 1.0000   
         H         H         1.0       0.1907765778393342  0.5701168039632388  0.6509607667813999 1.0000   
         H         H         1.0       0.20147389561244688           0.5464325466468676 0.5689613876419097 1.0000   
         H         H         1.0       0.19915643803217237           0.5052406880136071 0.5869643626962225 1.0000   
         H         H         1.0       0.15707448438659943           0.4339788803284763 0.6758893720703076 1.0000   
         H         H         1.0       0.1635172986551052  0.43067206128831204           0.7241090089888104 1.0000   
         H         H         1.0       0.2229510253615263  0.5205753171543122  0.7246709447992347 1.0000   
         H         H         1.0       0.21838601207206756           0.5236670308526923 0.6797672457822921 1.0000   
         H         H         1.0       0.08539466228772652           0.42940260372101974          0.7756207329263307 1.0000   
         H         H         1.0       0.1344199194744219  0.4302523730094337  0.7753289655030675 1.0000   
         H         H         1.0       0.1813582964557204  0.5193869394810066  0.7620289299995959 1.0000   
         H         H         1.0       0.13409096033072515           0.5161819380014412 0.7560163742387694 1.0000   
         H         H         1.0       0.24740037577441198           0.49206142662978974          0.7499551289336953 1.0000   
         H         H         1.0       0.29003839958695016           0.521059392687295  0.7748539159544239 1.0000   
         H         H         1.0       0.2456171012489538  0.5489474537806789  0.8261411377044691 1.0000   
         H         H         1.0       0.20131263089894458           0.5118772229722115 0.8067172230120297 1.0000   
         H         H         1.0       0.17060804102593177           0.4513147405880199 0.8162970211445638 1.0000   
         H         H         1.0       0.17268643970755138           0.41667777180976756          0.8401126357118807 1.0000   
         H         H         1.0       0.20759268292537797           0.39978412751084114          0.7696423162700488 1.0000   
         H         H         1.0       0.2114423026769899  0.440843998629836   0.7461495064628576 1.0000   
         C         C         1.0       0.29161974643939786           0.5412814898043049 0.861799342640667  1.0000   
         C         C         1.0       0.2925551000398821  0.5643727668608223  0.8741731609883752 1.0000   
         C         C         1.0       0.271469659479904   0.558243845733463   0.8920843567939141 1.0000   
         C         C         1.0       0.24678910398040826           0.5318677095882839 0.8980054994036204 1.0000   
         C         C         1.0       0.24631033155110776           0.5096111631836482 0.8847589087802655 1.0000   
         C         C         1.0       0.26903770645575215           0.5137960453200673 0.8677054578619869 1.0000   
         H         H         1.0       0.3095912361657785  0.5864826810205156  0.8687821288074659 1.0000   
         H         H         1.0       0.2736941763144089  0.5759491836170374  0.9020110543321365 1.0000   
         H         H         1.0       0.2268574734028102  0.48782201010433357           0.885846692602397  1.0000   
         H         H         1.0       0.26486441357049423           0.4951569608208868 0.8548447620692736 1.0000   
         C         C         1.0       0.18325079561961632           0.4975209778326829 0.881003444438479  1.0000   
         C         C         1.0       0.18913849872036254           0.5058841977628435 0.9083883038168702 1.0000   
         C         C         1.0       0.1667649030668271  0.4997127960570443  0.9269129343630772 1.0000   
         C         C         1.0       0.1382022107314185  0.4824528044820342  0.9196599806746867 1.0000   
         C         C         1.0       0.13360477557799988           0.4724319429568153 0.8922626203063659 1.0000   
         C         C         1.0       0.15504063204025717           0.4803134077010886 0.8731132547575545 1.0000   
         C         C         1.0       0.22096038565181295           0.5298043784435551 0.9159342626860075 1.0000   
         C         C         1.0       0.2156084322321767  0.5567307836129065  0.9157143008351979 1.0000   
         C         C         1.0       0.2068086386271302  0.5653848754105241  0.9375794376955262 1.0000   
         C         C         1.0       0.20543888981832015           0.5890087489288912 0.9374432609095223 1.0000   
         C         C         1.0       0.2107470180460996  0.6030895165809752  0.9124531045404827 1.0000   
         C         C         1.0       0.2211476497864992  0.5960838199350631  0.8902404453857091 1.0000   
         C         C         1.0       0.22225563608161855           0.5724706014295456 0.8921765189961642 1.0000   
         C         C         1.0       0.21861925918241634           0.5008147480906834 0.9588092431125184 1.0000   
         C         C         1.0       0.22062705258452234           0.49914786130079525          0.9870734788688451 1.0000   
         C         C         1.0       0.23861753163523583           0.5231204918413782 0.0032304002112111263        1.0000   
         C         C         1.0       0.2568396883759252  0.5488788316207209  0.9875341984168396 1.0000   
         C         C         1.0       0.25167116812751317           0.5510100203142645 0.9606963279013926 1.0000   
         C         C         1.0       0.23041435984568323           0.5271134078245191 0.9470094617872067 1.0000   
         C         C         1.0       0.23691754427461756           0.525286255242164  0.035995544506688404         1.0000   
         C         C         1.0       0.17339655346738445           0.547523617395508  0.02523078355725583          1.0000   
         C         C         1.0       0.16450652871649948           0.5194320291499785 0.030181533518584214         1.0000   
         C         C         1.0       0.1834926155133998  0.5121649248517062  0.038079814861296635         1.0000   
         C         C         1.0       0.21312242087663333           0.5329438020001698 0.03868045848162471          1.0000   
         C         C         1.0       0.22175509600489984           0.5609157664770359 0.03468554389564815          1.0000   
         C         C         1.0       0.20146670943065006           0.5678702166750097 0.030327338808982196         1.0000   
         C         C         1.0       0.2680276364404331  0.5471061645681049  0.048844905520693205         1.0000   
         C         C         1.0       0.29236217534255254           0.5461936769158754 0.04131764991125553          1.0000   
         C         C         1.0       0.2540113283144821  0.4568660004544173  0.5286366951885072 1.0000   
         C         C         1.0       0.23771745793923846           0.4353442017276138 0.5472133286669435 1.0000   
         C         C         1.0       0.20750408120549046           0.421179054217419  0.5474538076090495 1.0000   
         C         C         1.0       0.19439144479498838           0.42862993215464285          0.5289593569782951 1.0000   
         C         C         1.0       0.21857773141790948           0.4947795236384855 0.08023519858027206          1.0000   
         C         C         1.0       0.2119844777253689  0.47210879117995463           0.09570826732335913          1.0000   
         C         C         1.0       0.2202445936775882  0.4543683328588119  0.08646090362450054          1.0000   
         C         C         1.0       0.2333303595666176  0.45711943197042043           0.06095551174334135          1.0000   
         C         C         1.0       0.23725779398890637           0.4791584187597758 0.04485040984376654          1.0000   
         C         C         1.0       0.23083066003832328           0.4987705019798329 0.053815659290112894         1.0000   
         H         H         1.0       0.19803595141560149           0.5040530359703123 0.8642028880685532 1.0000   
         H         H         1.0       0.17011409864909655           0.5080937748870928 0.9477487339335808 1.0000   
         H         H         1.0       0.11956870345678355           0.47633750605238684          0.9332629782255392 1.0000   
         H         H         1.0       0.15008463434098768           0.4725640358983443 0.8511662539767066 1.0000   
         H         H         1.0       0.20266925898725027           0.5546195808548132 0.9562690083809944 1.0000   
         H         H         1.0       0.20137355937403648           0.5968101734730767 0.955530193370067  1.0000   
         H         H         1.0       0.22878401164241655           0.6106821046753247 0.8723547573307873 1.0000   
         H         H         1.0       0.22736716089195672           0.5654264793988157 0.8735416664237728 1.0000   
         H         H         1.0       0.2050197501729719  0.4827675773539346  0.9453063216704293 1.0000   
         H         H         1.0       0.20720457867481448           0.47898006232760343          0.9968978657998668 1.0000   
         H         H         1.0       0.269253485571419   0.567724986363865   0.9978512734019478 1.0000   
         H         H         1.0       0.26190726069023296           0.5718710792978903 0.951024359866902  1.0000   
         H         H         1.0       0.14205521957864556           0.5036338049460904 0.0293089866209022 1.0000   
         H         H         1.0       0.1787980300965429  0.4902961232578227  0.038379364084857315         1.0000   
         H         H         1.0       0.2431320357827783  0.579575760739383   0.033894438979591435         1.0000   
         H         H         1.0       0.12252240637796542           0.45959241810345824          0.5375527184069345 1.0000   
         H         H         1.0       0.2902035122005342  0.5327310316028153  0.02416025084640916          1.0000   
         H         H         1.0       0.27733534318886816           0.46829398713462667          0.5301187548249734 1.0000   
         H         H         1.0       0.1949527069581948  0.407587900819491   0.5652204394553847 1.0000   
         H         H         1.0       0.1710160349816242  0.416716126550665   0.5314221672515799 1.0000   
         H         H         1.0       0.21521002408218834           0.5116250740525061 0.08900343488065676          1.0000   
         H         H         1.0       0.20596027781218987           0.4722679061600474 0.11736980568608013          1.0000   
         H         H         1.0       0.23862980059072433           0.4430580965604069 0.05107033691006935          1.0000   
         H         H         1.0       0.24835155942934187           0.4841921823296122 0.02476870358459582          1.0000   
         C         C         1.0       0.3029849049828341  0.5588775136489919  0.8113265347564398 1.0000   
         C         C         1.0       0.30998423942925707           0.5471915566857374 0.8364631134743384 1.0000   
         H         H         1.0       0.32139907055446976           0.5662222538694099 0.7950486212445868 1.0000   
         H         H         1.0       0.30404836301076327           0.5780598953587388 0.8168814650539474 1.0000   
         H         H         1.0       0.3084661626781214  0.5270410773567088  0.8325056198909783 1.0000   
         H         H         1.0       0.33266500631759344           0.564164721643438  0.8421122595449412 1.0000   
         C         C         1.0       0.2634883947934582  0.44906779808984876           0.5964676712944005 1.0000   
         C         C         1.0       0.25355030605136686           0.4295717379027406 0.569576129307344  1.0000   
         H         H         1.0       0.2711675879862872  0.4389729704804384  0.6101389225533796 1.0000   
         H         H         1.0       0.28435098813871607           0.46962888880053427          0.589256395507873  1.0000   
         H         H         1.0       0.24058269142814215           0.4057791857714534 0.573986426526268  1.0000   
         H         H         1.0       0.27455162836944913           0.432799434116652  0.5617419126463911 1.0000   
         C         C         1.0       0.21119945579214655           0.6308175165423271 0.9102272665337399 1.0000   
         C         C         1.0       0.2349094496597562  0.6527959567433684  0.9278337235539572 1.0000   
         H         H         1.0       0.18962664342348268           0.6262434126486403 0.9174252610697818 1.0000   
         H         H         1.0       0.21706232990287858           0.6401290086624276 0.8891074637540016 1.0000   
         H         H         1.0       0.25758456318797707           0.6602388230002036 0.9199471361435763 1.0000   
         H         H         1.0       0.23451286068048713           0.6448090618317159 0.9482491316486885 1.0000   
         C         C         1.0       0.29159885567907495           0.7611874711790856 0.7304872962562868 1.0000   
         C         C         1.0       0.2968935590315469  0.790936899596592   0.7309484445378683 1.0000   
         H         H         1.0       0.3117978357020125  0.7627173921534951  0.7220621260352981 1.0000   
         H         H         1.0       0.2910259843773447  0.7541202700973079  0.7525923220132947 1.0000   
         H         H         1.0       0.28637332657748654           0.7949811402914247 0.7134886589849515 1.0000   
         H         H         1.0       0.31996597140665933           0.8072012175188533 0.7294064024260332 1.0000   
         C         C         1.0       0.3600666879296395  0.84908665234042    0.003092497180227083         1.0000   
         C         C         1.0       0.2589379525916689  0.8676202802324587  0.5471181687494037 1.0000   
         H         H         1.0       0.36071691490047086           0.8682467847010029 0.0022652089003141196        1.0000   
         H         H         1.0       0.38137972056365915           0.8535166184324889 0.9948296730206473 1.0000   
         H         H         1.0       0.2665622048433713  0.8896917588649228  0.5495625607265877 1.0000   
         H         H         1.0       0.279456652632338   0.868176177028104   0.5430722682545892 1.0000   
         C         C         1.0       0.18323994030445223           0.5989659335091664 0.5960967827601078 1.0000   
         C         C         1.0       0.20516534324421878           0.5906730615481296 0.5961108392276862 1.0000   
         H         H         1.0       0.16116582122182352           0.5793813370378851 0.6006777189225972 1.0000   
         H         H         1.0       0.18218600162167467           0.604107951407476  0.5752104519796639 1.0000   
         H         H         1.0       0.2257818628447638  0.6075738008473598  0.6046258382718472 1.0000   
         H         H         1.0       0.2113067718939513  0.5916921003342189  0.573093389091329  1.0000   
         C         C         1.0       0.07275211377403668           0.6235104446597287 0.7217384195095234 1.0000   
         C         C         1.0       0.07466225188496069           0.6497219172000451 0.7339320469483498 1.0000   
         H         H         1.0       0.053786668535694915          0.6113905275007806 0.7082647342580902 1.0000   
         H         H         1.0       0.06798849545259827           0.6086003255411008 0.738822799983387  1.0000   
         H         H         1.0       0.09297725282662615           0.6600135208532574 0.7467088731015321 1.0000   
         H         H         1.0       0.0781736548852176  0.6643902516286926  0.716244318759062  1.0000   
         C         C         1.0       0.12035564748245002           0.7460346362616497 0.8823181552251976 1.0000   
         C         C         1.0       0.12961248747820425           0.7391336434638505 0.8539791768035934 1.0000   
         H         H         1.0       0.13426053975857122           0.7676595766468718 0.8903746026640019 1.0000   
         H         H         1.0       0.11927843845792983           0.7309902415041472 0.8977635866391319 1.0000   
         H         H         1.0       0.11766691730304786           0.7413681967083702 0.8375438110602007 1.0000   
         H         H         1.0       0.12155193693964159           0.7157385772622189 0.8529112582686899 1.0000   
         C         C         1.0       0.9455068060472487  0.7153360845909277  0.9763137495332739 1.0000   
         C         C         1.0       0.9611599784945128  0.7203908137952126  0.003489569984221008         1.0000   
         H         H         1.0       0.9329624528478991  0.725145565788862   0.9755557667443738 1.0000   
         H         H         1.0       0.9288540245689207  0.6925877291932673  0.9746340754343309 1.0000   
         H         H         1.0       0.9803485145521021  0.7421754982286544  0.00241631432810796          1.0000   
         H         H         1.0       0.9483638286424516  0.7233897725388905  0.020181246026721222         1.0000   
         C         C         1.0       0.8802683979849559  0.639733668820788   0.7305005360610276 1.0000   
         C         C         1.0       0.872297843260385   0.6227161176179632  0.7026971491502533 1.0000   
         H         H         1.0       0.8594039191992813  0.6283732659643227  0.7427397309956798 1.0000   
         H         H         1.0       0.8825914853510406  0.6603075733019447  0.7250756341502714 1.0000   
         H         H         1.0       0.8781313895757442  0.6060005475186755  0.7037703864999276 1.0000   
         H         H         1.0       0.8487572214204412  0.6125120521531818  0.6991801869867201 1.0000   
         C         C         1.0       0.12917458439980384           0.7019494588134203 0.013217635479985335         1.0000   
         C         C         1.0       0.14426889297348508           0.7318301640819367 0.0005494553354101761        1.0000   
         H         H         1.0       0.14476780554737648           0.7007807203790983 0.027254881369877637         1.0000   
         H         H         1.0       0.12672349105094613           0.6865501500183595 0.9981830714338799 1.0000   
         H         H         1.0       0.12857149177670102           0.7359961039936528 0.990093672299701  1.0000   
         H         H         1.0       0.1489462933821954  0.7455608450376647  0.020247296413835603         1.0000   
         C         C         1.0       0.04869896615291895           0.7626397092587907 0.6294211537563336 1.0000   
         C         C         1.0       0.06561451570659256           0.7489444582903173 0.6382533262409464 1.0000   
         H         H         1.0       0.059703583664859984          0.7768019868947152 0.6125579296791036 1.0000   
         H         H         1.0       0.05252569394116484           0.7796778725778564 0.6452606693501054 1.0000   
         H         H         1.0       0.05871634623396076           0.7291430083561021 0.6286925215216064 1.0000   
         H         H         1.0       0.06065318347711446           0.7429679272075528 0.6614009574477636 1.0000   
         C         C         1.0       0.0926992705651732  0.4765394259490013  0.875848672881961  1.0000   
         C         C         1.0       0.10190504829781598           0.4549575174445028 0.882973519568683  1.0000   
         H         H         1.0       0.1004053165464073  0.4930168205930203  0.8913807034464727 1.0000   
         H         H         1.0       0.10403392953815874           0.4899578127403392 0.856935345228612  1.0000   
         H         H         1.0       0.10148084362129138           0.44319634726642115          0.8640828348531346 1.0000   
         H         H         1.0       0.0890372189074744  0.43885033394563383           0.8985686740807978 1.0000   
         C         C         1.0       0.06797646574427019           0.4608194329065173 0.7313874478691587 1.0000   
         C         C         1.0       0.08018281053874791           0.47049807122694476          0.7609460475036496 1.0000   
         H         H         1.0       0.08027391302579862           0.4552753812330751 0.7178730446075562 1.0000   
         H         H         1.0       0.07011280443714361           0.48000143344070606          0.7219456110475329 1.0000   
         H         H         1.0       0.0655118008377477  0.45524549438649975           0.7766178582262147 1.0000   
         H         H         1.0       0.08122016532931761           0.48999517851892693          0.7673596604485639 1.0000   
         C         C         1.0       0.9775462273658526  0.535280035487402   0.8255992497602264 1.0000   
         C         C         1.0       0.9471953816395992  0.5313574777116902  0.8291176331393272 1.0000   
         H         H         1.0       0.9907289808907589  0.5518739986677758  0.8403376262438942 1.0000   
         H         H         1.0       0.9875646447508923  0.5457099415702565  0.8052601403149203 1.0000   
         H         H         1.0       0.9366802218113862  0.5244032204294314  0.8498445105974577 1.0000   
         H         H         1.0       0.9319063721574667  0.5139617726193517  0.8158737699705054 1.0000   
         C         C         1.0       0.059059762988724396          0.41638932228371733          0.6142058026219124 1.0000   
         C         C         1.0       0.04931899348188168           0.4383415505588424 0.6156194090394963 1.0000   
         H         H         1.0       0.05178904889611621           0.40335399711414044          0.596255062425066  1.0000   
         H         H         1.0       0.04749338988559775           0.40035553237473154          0.6298986265336819 1.0000   
         H         H         1.0       0.05152870425723175           0.44769078660769324          0.6360301233237977 1.0000   
         H         H         1.0       0.06197415702826425           0.4541807338545025 0.5997783027664461 1.0000   
         C         C         1.0       0.13666231333982443           0.5498157039922598 0.9917021187204691 1.0000   
         C         C         1.0       0.14978342447725435           0.5546735653333573 0.021748835804891176         1.0000   
         H         H         1.0       0.150471001746113   0.5490423388021343  0.9763026535532201 1.0000   
         H         H         1.0       0.13278793992607293           0.5665000495327936 0.9841701129324728 1.0000   
         H         H         1.0       0.15717359627971852           0.5758562504359414 0.028757176180589372         1.0000   
         H         H         1.0       0.13177093289453473           0.543448777681904  0.03656095270268356          1.0000   
         C         C         1.0       0.9102730911244058  0.4024659648895728  0.9594107816857038 1.0000   
         C         C         1.0       0.8970742947574547  0.37552197385448344           0.9413093771338656 1.0000   
         H         H         1.0       0.9107195700088602  0.42046804471135263           0.9487018779565177 1.0000   
         H         H         1.0       0.8972176864430855  0.3957928747534731  0.9794072776223347 1.0000   
         H         H         1.0       0.8754641170556439  0.3699793105538734  0.9373939304349654 1.0000   
         H         H         1.0       0.8945750521793933  0.35708596166487677           0.9512717321539549 1.0000   
         C         C         1.0       0.8400595486356345  0.3272802252408504  0.6525143346311597 1.0000   
         C         C         1.0       0.8498685445785631  0.3466401992163555  0.6787519718482055 1.0000   
         H         H         1.0       0.8373346688602473  0.30749331379320316           0.6583253480651695 1.0000   
         H         H         1.0       0.8182559247128239  0.3212454044434925  0.6457368595486187 1.0000   
         H         H         1.0       0.8309695435671354  0.33601942017210773           0.6935936357650413 1.0000   
         H         H         1.0       0.8518229690536759  0.36714888128743717           0.6728554282455835 1.0000   
         C         C         1.0       0.9447038211114456  0.510798954936756   0.5767801865709627 1.0000   
         C         C         1.0       0.9157328990801874  0.5085252783884479  0.5715832128809024 1.0000   
         H         H         1.0       0.956327800075108   0.5239260424404072  0.5950463408467821 1.0000   
         H         H         1.0       0.9589215507879589  0.5241377019421023  0.5589904990736196 1.0000   
         H         H         1.0       0.9039633962248498  0.49134836907374024           0.5565529520653197 1.0000   
         H         H         1.0       0.9011547793163945  0.5009704109384314  0.5897696920237551 1.0000   
         C         C         1.0       0.6783290246860898  0.8646722971353473  0.9616344292843991 1.0000   
         C         C         1.0       0.7023101506889405  0.8747467060556919  0.9830753854913948 1.0000   
         H         H         1.0       0.6713742086208381  0.8793681779914552  0.9645910793721076 1.0000   
         H         H         1.0       0.6600980384077115  0.8437677219754716  0.9680321537902963 1.0000   
         H         H         1.0       0.7051019202937331  0.8934803656555057  0.9935936944112057 1.0000   
         H         H         1.0       0.7232050447327243  0.8831323043177314  0.9728614695582957 1.0000   
         C         C         1.0       0.5651864225073087  0.7751868173949907  0.67948445477871   1.0000   
         C         C         1.0       0.5672849936280806  0.7949286296547381  0.7030089192572858 1.0000   
         H         H         1.0       0.5609731333633393  0.7851148476097096  0.6620240834523803 1.0000   
         H         H         1.0       0.5472611883177007  0.7541870927469188  0.682683915365802  1.0000   
         H         H         1.0       0.547016951640693   0.7942277227402809  0.7026646057045395 1.0000   
         H         H         1.0       0.5822844620822294  0.8163178716158233  0.695759072058934  1.0000   
         C         C         1.0       0.24305512778795246           0.44033522574259687          0.12425279460599792          1.0000   
         C         C         1.0       0.2179297694796869  0.4311233149339025  0.10435367389151184          1.0000   
         H         H         1.0       0.23558707405251578           0.42254129376665256          0.1383557013417318 1.0000   
         H         H         1.0       0.2465629085002153  0.45797305770212127           0.1371703437790408 1.0000   
         H         H         1.0       0.2184994834275738  0.4148824557102851  0.091561932377199  1.0000   
         H         H         1.0       0.19741695752474214           0.4186149330452774 0.11568251836755739          1.0000   
         C         C         1.0       0.49116154856304356           0.5738589437358778 0.5674989788671125 1.0000   
         C         C         1.0       0.4923291056795706  0.6006957460479903  0.5560903100448472 1.0000   
         H         H         1.0       0.5043568711231711  0.5809720729541972  0.5857862891996146 1.0000   
         H         H         1.0       0.5022023622477962  0.5662815917547862  0.5542645794426455 1.0000   
         H         H         1.0       0.4779277658897586  0.6055939191935559  0.5682595330154876 1.0000   
         H         H         1.0       0.4816372934405322  0.5945471446332082  0.5351630423537144 1.0000   
         C         C         1.0       0.21586843576024387           0.3885020302755306 0.8381174365104513 1.0000   
         C         C         1.0       0.18988767353815494           0.38154863684396967          0.8204304523915058 1.0000   
         H         H         1.0       0.21634884728530657           0.40174347665171883          0.8572921541051733 1.0000   
         H         H         1.0       0.21285679614414474           0.3690721804272432 0.8463257579991915 1.0000   
         H         H         1.0       0.17108307581213153           0.36789621944736733          0.8340969244953551 1.0000   
         H         H         1.0       0.18770877609558007           0.36664310656104654          0.8044925776131983 1.0000   
         C         C         1.0       0.3022668400971853  0.5005875567426581  0.9722907614785098 1.0000   
         C         C         1.0       0.3031385041908126  0.49031066511609134           0.9404621738639253 1.0000   
         H         H         1.0       0.3121675866444163  0.5233535603791112  0.9705468388190989 1.0000   
         H         H         1.0       0.2802651925697865  0.49159885062647174           0.9806205980970194 1.0000   
         H         H         1.0       0.28694575428214486           0.4910100504792353 0.9284291380754305 1.0000   
         H         H         1.0       0.29697943538735283           0.46865230159683746          0.9426988624767042 1.0000   
         C         C         1.0       0.31170324032924324           0.514834919183764  0.6940915709386757 1.0000   
         C         C         1.0       0.29883084615030464           0.5026772123186359 0.6663400284982146 1.0000   
         H         H         1.0       0.33120116447029296           0.5355913249693719 0.6875526480751215 1.0000   
         H         H         1.0       0.2964176567926008  0.5186411617225728  0.7055698506994534 1.0000   
         H         H         1.0       0.290879349866663   0.5146381965978937  0.654971475495224  1.0000   
         H         H         1.0       0.2770383565195721  0.4813932310507921  0.6665921359029024 1.0000   
         C         C         1.0       0.4781171473215621  0.6725904712438769  0.8495960020088849 1.0000   
         C         C         1.0       0.5056689053631014  0.6825764156443179  0.8665998642321646 1.0000   
         H         H         1.0       0.48309187286283606           0.6733109496184595 0.8257959183043457 1.0000   
         H         H         1.0       0.468152577921643   0.6866679969482329  0.8516710071466013 1.0000   
         H         H         1.0       0.5065215327394111  0.6634329088538085  0.8682064463012472 1.0000   
         H         H         1.0       0.4990313402154033  0.6867174615087789  0.8864872782801828 1.0000   
         C         C         1.0       0.5184791308060352  0.530810608151213   0.8817874071144456 1.0000   
         C         C         1.0       0.521532585243454   0.5604279303703334  0.8895125343720786 1.0000   
         H         H         1.0       0.5148885503039751  0.526842062951696   0.8580052514955188 1.0000   
         H         H         1.0       0.49721702724635986           0.5130006013481243 0.8903628121108733 1.0000   
         H         H         1.0       0.5291453096734687  0.5658359308405471  0.9102508137297477 1.0000   
         H         H         1.0       0.538044737654995   0.5776762072376228  0.8764758264722491 1.0000   
         C         C         1.0       0.41360350455696915           0.42215267862812195          0.043241134275813  1.0000   
         C         C         1.0       0.443149920516123   0.43461977540219127           0.05843784940674768          1.0000   
         H         H         1.0       0.4172347783254753  0.4228808825240624  0.02101025827211145          1.0000   
         H         H         1.0       0.40098013947652544           0.3992976800014187 0.04743049403571975          1.0000   
         H         H         1.0       0.4185223020713561  0.410409259797745   0.53349556475723   1.0000   
         H         H         1.0       0.449935730241659   0.44306014983216546           0.5369113149572177 1.0000   
         C         C         1.0       0.41484896002911886           0.4141103510336261 0.655245129132359  1.0000   
         C         C         1.0       0.4426488699930386  0.4318549183986113  0.6715138614885191 1.0000   
         H         H         1.0       0.39754273047203414           0.3991669666641743 0.6710305547475258 1.0000   
         H         H         1.0       0.4175663693551851  0.40166324119199764           0.6404342424470321 1.0000   
         H         H         1.0       0.4576583338814178  0.45149806571297313           0.6609824485435675 1.0000   
         H         H         1.0       0.4369580000636053  0.4387192449005429  0.6909066030777153 1.0000   
         C         C         1.0       0.39822799441573964           0.4024811050217561 0.7684963908081127 1.0000   
         C         C         1.0       0.41832678806058565           0.407506896476327  0.7936900739958327 1.0000   
         H         H         1.0       0.41160584633289127           0.4108562540666629 0.7501494854428825 1.0000   
         H         H         1.0       0.38380161931899826           0.38014443422883837          0.7637664388181141 1.0000   
         H         H         1.0       0.4084736842928047  0.4047767776527509  0.8139842839529579 1.0000   
         H         H         1.0       0.43487009256011416           0.4305182046575328 0.7934583474173297 1.0000   
         C         C         1.0       0.5583452417940777  0.34675830620815273           0.5899082403124801 1.0000   
         C         C         1.0       0.5372098472430406  0.3269881600207196  0.6128071500280228 1.0000   
         H         H         1.0       0.5702401034668496  0.33896606347102093           0.5820777757297657 1.0000   
         H         H         1.0       0.5741233443714492  0.3659647383383756  0.5997986417110268 1.0000   
         H         H         1.0       0.546352296705202   0.31442320683250036           0.6200671129230204 1.0000   
         H         H         1.0       0.5165688375758842  0.31254492524016203           0.6029535010675909 1.0000   
         C         C         1.0       0.5577823923893641  0.3659020401083434  0.8804401904850802 1.0000   
         C         C         1.0       0.5813556032049276  0.3920589186963497  0.8625477348017827 1.0000   
         H         H         1.0       0.5536260376340852  0.3720267014734184  0.9008079425088097 1.0000   
         H         H         1.0       0.5660746192414547  0.35268380099289576           0.8831507660338814 1.0000   
         H         H         1.0       0.5787414409650361  0.3906688627665777  0.8407208733561465 1.0000   
         H         H         1.0       0.6030022592298668  0.3942200127623933  0.865449946821174  1.0000   
         C         C         1.0       0.9950074052168454  0.8462098592941658  0.8535738793263123 1.0000   
         C         C         1.0       0.007724731074111535          0.834213642094106  0.832887455003056  1.0000   
         H         H         1.0       0.0005537998247406861         0.8672399374371768 0.8449386970939518 1.0000   
         H         H         1.0       0.006733906107233789          0.8519958519027377 0.8727153693151368 1.0000   
         H         H         1.0       0.995753884983344   0.8287817887699306  0.8138742799973879 1.0000   
         H         H         1.0       0.030581927235158624          0.8502261594627915 0.8258811874791031 1.0000   
         C         C         1.0       0.7622503278792517  0.7428640882429884  0.054453667427673214         1.0000   
         C         C         1.0       0.7325090364231504  0.7203785973421444  0.0460980167586178 1.0000   
         H         H         1.0       0.761257808049987   0.7626417130569647  0.056763549692103066         1.0000   
         H         H         1.0       0.7655836696155572  0.7375204926680645  0.07528559840881477          1.0000   
         H         H         1.0       0.7237506890626018  0.7002416896817316  0.05960377438157294          1.0000   
         H         H         1.0       0.7292171657200095  0.7116105248474063  0.025538467794400388         1.0000   
         C         C         1.0       0.795979540578722   0.8142899629741166  0.8587203280008978 1.0000   
         C         C         1.0       0.8015778937373438  0.8338154067043498  0.8331439260960828 1.0000   
         H         H         1.0       0.7718115525725809  0.79610032600685    0.8596916004441575 1.0000   
         H         H         1.0       0.7998530313949901  0.8256391681560239  0.879701825631972  1.0000   
         H         H         1.0       0.8225452244492415  0.8545246691652384  0.8324206375736128 1.0000   
         H         H         1.0       0.8026863992865102  0.8237099987195481  0.8134076093096813 1.0000   
         C         C         1.0       0.6966333679044624  0.6153206109408855  0.9647689404200013 1.0000   
         C         C         1.0       0.7003641830808373  0.5958916576373345  0.9439723459662488 1.0000   
         H         H         1.0       0.6867084729491446  0.6045843172968358  0.9848627386636015 1.0000   
         H         H         1.0       0.6821877011863582  0.6223562371632959  0.9577797845656494 1.0000   
         H         H         1.0       0.7159466578800382  0.590709450374921   0.9521032575095553 1.0000   
         H         H         1.0       0.7080475737069142  0.6058207130341154  0.9241221327911828 1.0000   
         C         C         1.0       0.8675963592424724  0.7283754975293676  0.5309416324558766 1.0000   
         C         C         1.0       0.852947639902754   0.74050541438214    0.5486582333107636 1.0000   
         H         H         1.0       0.8540350588063226  0.7106241974600858  0.5182631464896644 1.0000   
         H         H         1.0       0.884610535222466   0.7442093915748949  0.5154027243473392 1.0000   
         H         H         1.0       0.8455210286082147  0.7517018523127328  0.5349670421503157 1.0000   
         H         H         1.0       0.8699932306904699  0.7592657802459073  0.5609191368375848 1.0000   
         C         C         1.0       0.652999008877603   0.7126046783734007  0.7363421909109608 1.0000   
         C         C         1.0       0.6623755358389946  0.6982409926274054  0.7572534939391445 1.0000   
         H         H         1.0       0.6376937457969656  0.6964742062602325  0.7199911454915869 1.0000   
         H         H         1.0       0.6708174905531853  0.7290844193717794  0.7233541479590888 1.0000   
         H         H         1.0       0.6734170048574327  0.7133328147542591  0.7751735139773035 1.0000   
         H         H         1.0       0.6427300959425859  0.6803599316839645  0.7673716672655275 1.0000   
         C         C         1.0       0.6382845536260965  0.629642952797736   0.6184237949421818 1.0000   
         C         C         1.0       0.6386381306631833  0.6401655040229156  0.6481456401118778 1.0000   
         H         H         1.0       0.6216645630155833  0.6074085766516516  0.6165950298108831 1.0000   
         H         H         1.0       0.6331982033358535  0.6396930519008197  0.6023132447400324 1.0000   
         H         H         1.0       0.6548612725870911  0.6393443857375324  0.6616775529304973 1.0000   
         H         H         1.0       0.6147999992806831  0.6241950024822251  0.6562698353590165 1.0000   
         C         C         1.0       0.8747614634102505  0.6584570193893207  0.018859149077784965         1.0000   
         C         C         1.0       0.7861867763286017  0.5680556390014271  0.5677210960777034 1.0000   
         H         H         1.0       0.8322116942816676  0.5965408049228008  0.5570050323901269 1.0000   
         H         H         1.0       0.8761589678854222  0.6434190940389624  0.0034422172113088845        1.0000   
         H         H         1.0       0.7955648523989809  0.5610172942507494  0.5834483704392498 1.0000   
         H         H         1.0       0.7686813593772771  0.5484430807301812  0.556712941263488  1.0000   
         C         C         1.0       0.8425777742360893  0.6867827233582481  0.751525322834845  1.0000   
         C         C         1.0       0.859097614972941   0.6875043481186484  0.777574186836968  1.0000   
         H         H         1.0       0.8440016900859033  0.6725371880852631  0.7379219160043299 1.0000   
         H         H         1.0       0.8548424396217978  0.7068387455543533  0.7400649206432421 1.0000   
         H         H         1.0       0.8803784398212979  0.6917830145440412  0.7701377113619955 1.0000   
         H         H         1.0       0.8468959917126965  0.6659788883336405  0.787714949862793  1.0000   
         C         C         1.0       0.623316499412201   0.5003763246162625  0.730507876556721  1.0000   
         C         C         1.0       0.6206381447053843  0.5239462799816706  0.7454662778278162 1.0000   
         H         H         1.0       0.634194647308764   0.4943514931643908  0.7452098796374125 1.0000   
         H         H         1.0       0.6384850251877129  0.5101714804354305  0.7116535861155852 1.0000   
         H         H         1.0       0.6166867050207948  0.5165224859740173  0.7684324264080795 1.0000   
         H         H         1.0       0.6003685833594926  0.5237146366758245  0.7386412345730046 1.0000   
         C         C         1.0       0.34086387276291985           0.9543334136834419 0.7925896680624032 1.0000   
         C         C         1.0       0.30919838771576363           0.9381353738612298 0.804408471438407  1.0000   
         H         H         1.0       0.34281363213349003           0.9392648651206041 0.7783671261078273 1.0000   
         H         H         1.0       0.3432943826699348  0.9716316655708674  0.7796009010560331 1.0000   
         H         H         1.0       0.29537315729649505           0.9396553051112382 0.7886203985661328 1.0000   
         H         H         1.0       0.30698548865395786           0.9498895343473508 0.8216240605044022 1.0000   
         C         C         1.0       0.2925333503490166  0.8649865434224663  0.7407716837629907 1.0000   
         C         C         1.0       0.27830791628521034           0.8753252568015855 0.7204114125706841 1.0000   
         H         H         1.0       0.2841499355177438  0.8426483357140071  0.7379747288092249 1.0000   
         H         H         1.0       0.2879275047342049  0.865956252330982   0.7632904082116355 1.0000   
         H         H         1.0       0.2712849146565069  0.8865218561930448  0.7320439240382823 1.0000   
         H         H         1.0       0.2957343199066027  0.8930527774658004  0.7083101978552266 1.0000   
         C         C         1.0       0.3717524308808761  0.9357895484299628  0.9829018506978311 1.0000   
         C         C         1.0       0.3341896273537238  0.8782321825550805  0.5592161119639742 1.0000   
         H         H         1.0       0.3644351659385543  0.9473781515722248  0.9969388539997965 1.0000   
         H         H         1.0       0.3505746611526433  0.9178970234959746  0.9785012582100394 1.0000   
         H         H         1.0       0.3239917866033328  0.8913802789310872  0.5626958901576223 1.0000   
         H         H         1.0       0.32300771439686365           0.8599904549400724 0.5739841197311709 1.0000   
         C         C         1.0       0.5147318020969415  0.9260838000953548  0.7640908786664236 1.0000   
         C         C         1.0       0.5199044301198898  0.922920355243562   0.7949100116753476 1.0000   
         H         H         1.0       0.5128070607674612  0.9086169348608182  0.7512064468007509 1.0000   
         H         H         1.0       0.5342693673757766  0.9432875062045966  0.7543574628023683 1.0000   
         H         H         1.0       0.5363539805704098  0.9172123243493999  0.7945161556204704 1.0000   
         H         H         1.0       0.4995643440811153  0.9024483781930271  0.8004159098925314 1.0000   
         C         C         1.0       0.7466371005671416  0.9493752939891017  0.7613424381118525 1.0000   
         C         C         1.0       0.724541744679289   0.9493688208581551  0.7425437732425741 1.0000   
         H         H         1.0       0.7622338899928771  0.9468267046337617  0.7467884484735067 1.0000   
         H         H         1.0       0.7608433223045914  0.9705788515824592  0.768435780461816  1.0000   
         H         H         1.0       0.7110461622128516  0.928008016517297   0.730571413603801  1.0000   
         H         H         1.0       0.7376101509561377  0.9646434964135602  0.7265139429247042 1.0000   
         C         C         1.0       0.6395790475694806  0.06808756846420949           0.9728263783630297 1.0000   
         C         C         1.0       0.6089584783210976  0.04425144320334806           0.9749956156186074 1.0000   
         H         H         1.0       0.6509413799719712  0.07691301448530696           0.9931859577957106 1.0000   
         H         H         1.0       0.6376965099012507  0.08651262436457996           0.9668130582671091 1.0000   
         H         H         1.0       0.5991904794165895  0.05051189570550707           0.99026614266022   1.0000   
         H         H         1.0       0.6106547635753036  0.026693057313837976         0.9831737305243509 1.0000   
         C         C         1.0       0.77271597593648    0.8563467271076708  0.6693132409407226 1.0000   
         C         C         1.0       0.7700063108670733  0.8809167844171603  0.6830504490158148 1.0000   
         H         H         1.0       0.7863728172407586  0.8632310795576977  0.650087407138485  1.0000   
         H         H         1.0       0.7842467635344854  0.8505026455552789  0.6857134190859894 1.0000   
         H         H         1.0       0.792180452515501   0.8986210408053299  0.6859601937778409 1.0000   
         H         H         1.0       0.7610011401987787  0.8743466057422346  0.7041706233464926 1.0000   
         C         C         1.0       0.7169994028961303  0.9434930146011377  0.9564626812405777 1.0000   
         C         C         1.0       0.7307278646485318  0.9597183394633372  0.9291681184497178 1.0000   
         H         H         1.0       0.7158804682805179  0.9226107367803328  0.9568237970958059 1.0000   
         H         H         1.0       0.693735225771499   0.9362589800048832  0.9563758199372856 1.0000   
         H         H         1.0       0.7224949334828809  0.945601686984111   0.9115819727027585 1.0000   
         H         H         1.0       0.7535488310761018  0.9662535923105025  0.9270791357203327 1.0000   
         C         C         1.0       0.5879690266994191  0.8623870427508206  0.7769362049345435 1.0000   
         C         C         1.0       0.5668913247618099  0.8702500052577982  0.7886215020675588 1.0000   
         H         H         1.0       0.6081224890272678  0.8750116290172176  0.7886503775081277 1.0000   
         H         H         1.0       0.5789970870558131  0.8403475819028859  0.7814864674704507 1.0000   
         H         H         1.0       0.5555433336388215  0.8577783392248892  0.807281031401579  1.0000   
         H         H         1.0       0.5485918360721898  0.8636998768221503  0.7754119344351954 1.0000   
         C         C         1.0       0.5097011638699569  0.8604011587992554  0.5871269944090713 1.0000   
         C         C         1.0       0.5165516681917964  0.8870539696977148  0.5713711866949119 1.0000   
         H         H         1.0       0.5095759386639731  0.8448932212142515  0.5733823703838614 1.0000   
         H         H         1.0       0.48664167418908744           0.846794751455806  0.596284693932659  1.0000   
         H         H         1.0       0.5107874667688534  0.8813436162994618  0.5490866463926126 1.0000   
         H         H         1.0       0.5393570159773755  0.9027755029996002  0.5701060403417973 1.0000   
         C         C         1.0       0.019885893017220768          0.3147734827543112 0.9857206544194614 1.0000   
         C         C         1.0       0.03297144679257036           0.3415955143861813 0.9662211087490785 1.0000   
         H         H         1.0       0.9366297046330156  0.24386096743473165           0.4656141462126669 1.0000   
         H         H         1.0       0.020739000505258787          0.2987613440233721 0.9753038136864564 1.0000   
         H         H         1.0       0.02579680772812143           0.33560729529002126          0.9443611829854492 1.0000   
         H         H         1.0       0.05628874178170307           0.3485861367190833 0.9649191479576898 1.0000   
         C         C         1.0       0.8224378248072415  0.14938525277366047           0.8653271644455649 1.0000   
         C         C         1.0       0.823202535205424   0.17613648243637212           0.8504131349661584 1.0000   
         H         H         1.0       0.8379095787620991  0.15748511999639717           0.8819063498947599 1.0000   
         H         H         1.0       0.8304349213389807  0.13868341788478397           0.8513323330877419 1.0000   
         H         H         1.0       0.8443201461362065  0.18796520808241152           0.8408757292434119 1.0000   
         H         H         1.0       0.8068675664117783  0.16891739219614588           0.8354185389025269 1.0000   
         C         C         1.0       0.8144210094425061  0.06724685599935776           0.5815288821468528 1.0000   
         C         C         1.0       0.793684279043918   0.051782892178985795         0.6056137954314793 1.0000   
         H         H         1.0       0.803294241799888   0.05335494594192913           0.5635779470483593 1.0000   
         H         H         1.0       0.8345006731961727  0.06880901130081418           0.5858420590148296 1.0000   
         H         H         1.0       0.8340503191606322  0.14160159629240554           0.05345173765883726          1.0000   
         H         H         1.0       0.7749923477944973  0.055488579032516805         0.6042695093706546 1.0000   
         C         C         1.0       0.9073671488109087  0.2275319796834994  0.7208294203469667 1.0000   
         C         C         1.0       0.9353436732451262  0.25192083517143893           0.733776956625077  1.0000   
         H         H         1.0       0.9068494652942461  0.23093930767629514           0.6976169629612097 1.0000   
         H         H         1.0       0.9088332377308466  0.20827509334779432           0.7231342891622429 1.0000   
         H         H         1.0       0.9530974410906826  0.25381586780632814           0.7216390838631894 1.0000   
         H         H         1.0       0.9377138033653976  0.24872163299131955           0.7553307931730046 1.0000   
         C         C         1.0       0.6263257407360985  0.026810096257078978         0.6648603002268365 1.0000   
         C         C         1.0       0.6593332012472881  0.04408382622518881           0.6616336017142195 1.0000   
         H         H         1.0       0.6185253534877877  0.032217056242071385         0.6846659992731909 1.0000   
         H         H         1.0       0.6179862948036041  0.030945690609286647         0.6470651505983269 1.0000   
         H         H         1.0       0.6637222855074872  0.03780794262941756           0.6423069812682769 1.0000   
         H         H         1.0       0.6698791434827756  0.03687154986387631           0.6759203560873481 1.0000   
         C         C         1.0       0.6982855667039465  0.11019440891407319           0.8106448535890578 1.0000   
         C         C         1.0       0.6750118496779011  0.10011692317050119           0.7879637290271566 1.0000   
         H         H         1.0       0.6999554578684904  0.09256919588511779           0.8172792357206775 1.0000   
         H         H         1.0       0.691247722652332   0.112114037983563   0.8312722675236642 1.0000   
         H         H         1.0       0.6870168126415772  0.11415976487785137           0.7698153800836599 1.0000   
         H         H         1.0       0.6572377847750711  0.10251326453240701           0.7962346343187414 1.0000   
         C         C         1.0       0.8717445610572206  0.3247028875066496  0.8086806186322495 1.0000   
         C         C         1.0       0.8646100238780797  0.33743042508383364           0.8350795868703702 1.0000   
         H         H         1.0       0.8914056359303852  0.32544758259987056           0.8113301608125033 1.0000   
         H         H         1.0       0.8765315448628025  0.3393621433269708  0.7911695033378693 1.0000   
         H         H         1.0       0.8841477782927659  0.357656602857331   0.8390152133984233 1.0000   
         H         H         1.0       0.8516773182133551  0.34619493377938737           0.829761581133602  1.0000   
         C         C         1.0       0.8171434606222262  0.25984931241830794           0.6159538143791139 1.0000   
         C         C         1.0       0.8388518828164427  0.25808481799947536           0.6357629510709967 1.0000   
         H         H         1.0       0.8227566215780621  0.259719705485992   0.5946857186162705 1.0000   
         H         H         1.0       0.8196221279524099  0.28106242012754706           0.6173660090549284 1.0000   
         H         H         1.0       0.8275184017603493  0.25042670330138883           0.6558116142223853 1.0000   
         H         H         1.0       0.8585029387002806  0.279777392043484   0.6399152523943074 1.0000   
         C         C         1.0       0.44396767724066916           0.2831840139657853 0.9235182833350556 1.0000   
         C         C         1.0       0.4128925409626178  0.2547451135088436  0.4600978294076363 1.0000   
         H         H         1.0       0.4240112620218039  0.2693623366465691  0.9108635133059627 1.0000   
         H         H         1.0       0.4019299416841605  0.22878192431445166           0.4952022001841539 1.0000   
         H         H         1.0       0.41601436189890906           0.2542324762515725 0.4369890553343629 1.0000   
         H         H         1.0       0.3929984047065219  0.25620681827192904           0.4626868063029246 1.0000   
         C         C         1.0       0.4860561796581812  0.1398571712346104  0.8646141013896922 1.0000   
         C         C         1.0       0.49022800208015394           0.12340561115695632          0.8882364027296834 1.0000   
         H         H         1.0       0.46341008044066695           0.13095548621825034          0.858597177847071  1.0000   
         H         H         1.0       0.49810061293676383           0.14072508783685683          0.8458058653009825 1.0000   
         H         H         1.0       0.48538446524346207           0.12840815407295247          0.9094681807327184 1.0000   
         H         H         1.0       0.5127128208646374  0.128362836397628   0.8900839751047437 1.0000   
         C         C         1.0       0.5038234073082601  0.07089784287708989           0.5864562994873465 1.0000   
         C         C         1.0       0.5231016130165023  0.06259158667997333           0.5711791483967484 1.0000   
         H         H         1.0       0.5016976400429655  0.064268945080312   0.6077114548869397 1.0000   
         H         H         1.0       0.4822893753753648  0.05622656758663137           0.5795128738326759 1.0000   
         H         H         1.0       0.5225383180204857  0.0650361822486425  0.5486413168504484 1.0000   
         H         H         1.0       0.5824194365023057  0.1325877952577498  0.0224431570068917 1.0000   
         C         C         1.0       0.7207979726965589  0.2494701375665387  0.977145985646754  1.0000   
         C         C         1.0       0.7102734548902284  0.2666663031728649  0.962451723369092  1.0000   
         H         H         1.0       0.7042390688136276  0.22737910157153665           0.980348518519641  1.0000   
         H         H         1.0       0.72709471604092    0.2569076179465013  0.9991778809575681 1.0000   
         H         H         1.0       0.7118526070522444  0.2660373063401729  0.9398175142679291 1.0000   
         H         H         1.0       0.7267014970774103  0.2890447431719649  0.9671292532824756 1.0000   
         C         C         1.0       0.3909032099985412  0.19457665222404055           0.8406068208388582 1.0000   
         C         C         1.0       0.38133979027602705           0.2086023686592348 0.820167536787126  1.0000   
         H         H         1.0       0.4009798918996233  0.20875165231754328           0.8580755351046371 1.0000   
         H         H         1.0       0.37376000431774015           0.17768943502961898          0.8525318074453132 1.0000   
         H         H         1.0       0.36106709881220206           0.20518771058535956          0.8299071327510692 1.0000   
         H         H         1.0       0.3734097257983272  0.1958363651361463  0.8017743058531924 1.0000   
         C         C         1.0       0.4481171308281801  0.06078307731482146           0.7696624330557383 1.0000   
         C         C         1.0       0.41799780061938274           0.03634743493806303          0.7624824582886383 1.0000   
         H         H         1.0       0.4623702077526968  0.060569970179015435         0.751976893325871  1.0000   
         H         H         1.0       0.45762835955154174           0.058113122425386576         0.7888103634195138 1.0000   
         H         H         1.0       0.4016689996511732  0.029153200926247402         0.7785024075565721 1.0000   
         H         H         1.0       0.41066469258893923           0.04428067353955778          0.7462859468009911 1.0000   
         C         C         1.0       0.6292881646638813  0.13759071822470426           0.8362485169595749 1.0000   
         C         C         1.0       0.6246196036108594  0.1400068816413271  0.8053835620731111 1.0000   
         H         H         1.0       0.6299898166100228  0.15411055114948333           0.8494343009104365 1.0000   
         H         H         1.0       0.6526592681078924  0.14473341008748586           0.8385240660581124 1.0000   
         H         H         1.0       0.6097867946946981  0.11885489231353681           0.7958530304302386 1.0000   
         H         H         1.0       0.6451920538658626  0.14660406718656507           0.7943009514127757 1.0000   
         C         C         1.0       0.638156573700032   0.33785375772802034           0.8031845928203853 1.0000   
         C         C         1.0       0.6111858406380993  0.3404645022959905  0.8050324240200668 1.0000   
         H         H         1.0       0.652626287492918   0.3536719500537248  0.7874718553600644 1.0000   
         H         H         1.0       0.6500906336898369  0.34449529615490904           0.8230449986517022 1.0000   
         H         H         1.0       0.5990819726962474  0.33406525268834036           0.784120549597659  1.0000   
         H         H         1.0       0.6184391186403716  0.36270537024287186           0.8070220727806227 1.0000   
         C         C         1.0       0.45642209323335553           0.2194899389578738 0.6616102131784393 1.0000   
         C         C         1.0       0.48843099768550036           0.2380603088938313 0.6546195525718319 1.0000   
         H         H         1.0       0.44375936234423025           0.20418212884639073          0.6461873865954326 1.0000   
         H         H         1.0       0.44680721764092846           0.23298377726840755          0.6600471750747742 1.0000   
         H         H         1.0       0.490894079259484   0.2552086161035952  0.641585779790995  1.0000   
         H         H         1.0       0.5024002616277092  0.25016154862003565           0.6728178077733061 1.0000   
         C         C         1.0       0.5986297202921322  0.18002642422061263           0.6605485101167786 1.0000   
         C         C         1.0       0.59719543320463    0.15185154519459612           0.6607298956662299 1.0000   
         H         H         1.0       0.5818761256784344  0.17847482064871803           0.650294829893083  1.0000   
         H         H         1.0       0.6184187911527143  0.19571730074245203           0.6503436621161233 1.0000   
         H         H         1.0       0.5895746586506342  0.14117415714354187           0.6400090505288554 1.0000   
         H         H         1.0       0.5835605606051002  0.13605249343612508           0.6769498286060037 1.0000

