data_0
_chemical_formula_structural 
                                        C6H4C38H24C6H4C38H24C6H4C38H24C6H4C38H24C6H4C38H24C6H4C38H24C6H4C38H24C6H4C38H24C6H4C38H24C6H4C38H24C6H4C38H24C6H4C38H24C6H4C38H24C6H4C38H24C6H4C38H24C6H4C38H24C6H4C38H24C6H4C38H24C6H4C38H24C6H4C38H24C6H4C38H24C6H4C38H24C6H4C38H24C6H4C38H24C2H4C2H4C2H4C2H4C2H4C2H4C2H4C2H4C2H4C2H4C2H4C2H4C2H4C2H4C2H4C2H4C2H4C2H4C2H4C2H4C2H4C2H4C2H4C2H4C2H4C2H4C2H4C2H4C2H4C2H4C2H4C2H4C2H4C2H4C2H4C2H4C2H4C2H4C2H4C2H4C2H4C2H4C2H4C2H4C2H4C2H4C2H4C2H4C2H4C2H4C2H4C2H4C2H4C2H4C2H4C2H4C2H4C2H4C2H4C2H4C2H4C2H4C2H4C2H4C2H4C2H4C2H4C2H4C2H4C2H4C2H4C2H4C6H4C38H24C6H4C38H24C6H4C38H24C6H4C38H24C6H4C38H24C6H4C38H24C6H4C38H24C6H4C38H24C6H4C38H24C6H4C38H24C6H4C38H24C6H4C38H24C6H4C38H24C6H4C38H24C6H4C38H24C6H4C38H24C6H4C38H24C6H4C38H24C6H4C38H24C6H4C38H24C6H4C38H24C6H4C38H24C6H4C38H24C6H4C38H24C2H4C2H4C2H4C2H4C2H4C2H4C2H4C2H4C2H4C2H4C2H4C2H4C2H4C2H4C2H4C2H4C2H4C2H4C2H4C2H4C2H4C2H4C2H4C2H4C2H4C2H4C2H4C2H4C2H4C2H4C2H4C2H4C2H4C2H4C2H4C2H4C2H4C2H4C2H4C2H4C2H4C2H4C2H4C2H4C2H4C2H4C2H4C2H4C2H4C2H4C2H4C2H4C2H4C2H4C2H4C2H4C2H4C2H4C2H4C2H4C2H4C2H4C2H4C2H4C2H4C2H4C2H4C2H4C2H4C2H4C2H4C2H4
_chemical_formula_sum                   'C2400 H1920'
_cell_length_a                          52.52869982260763
_cell_length_b                          54.04204835687175
_cell_length_c                          46.478216060656194
_cell_angle_alpha                       90.35429558701759
_cell_angle_beta                        89.05130117049197
_cell_angle_gamma                       123.21782851691279
_space_group_name_H-M_alt               'P 1'
_space_group_IT_number                  1
loop_
  _space_group_symop_operation_xyz
         'x, y, z' 
loop_
  _atom_site_type_symbol
  _atom_site_label
  _atom_site_symmetry_multiplicity
  _atom_site_fract_x
  _atom_site_fract_y
  _atom_site_fract_z
  _atom_site_occupancy
         C         C         1.0       0.5714520093226115  0.25186377206489735           0.37084123841893507          1.0000   
         C         C         1.0       0.5951748663318335  0.27463200621513023           0.35752220253779354          1.0000   
         C         C         1.0       0.6111012002962273  0.27136445904334294           0.3369765563118541 1.0000   
         C         C         1.0       0.6037706362045911  0.24319987344526497           0.32826807502171423          1.0000   
         C         C         1.0       0.5804088917536142  0.2193067075148584  0.3435005465436382 1.0000   
         C         C         1.0       0.5650588747063426  0.22370645504034964           0.36424321304272544          1.0000   
         H         H         1.0       0.6003898908698138  0.29671597286773516           0.3597310644537964 1.0000   
         H         H         1.0       0.6294789749621953  0.29019265564974567           0.3243203408238403 1.0000   
         H         H         1.0       0.5719859117008214  0.19666576678859668           0.336751098057548  1.0000   
         H         H         1.0       0.5460772094455165  0.20390479604697104           0.37318500581529007          1.0000   
         C         C         1.0       0.628853199212961   0.20353602285595457           0.32853501412008296          1.0000   
         C         C         1.0       0.6215983991638527  0.21018784424290482           0.30232919032442973          1.0000   
         C         C         1.0       0.6231567842062906  0.19530643316021604           0.2792550342034949 1.0000   
         C         C         1.0       0.6280916700362787  0.1728388203993225  0.28066551546202895          1.0000   
         C         C         1.0       0.6335214050025865  0.16518364771708272           0.30814406080723705          1.0000   
         C         C         1.0       0.6345547410049236  0.18138337910649352           0.33184835860791706          1.0000   
         C         C         1.0       0.6186438474227673  0.23772097286663615           0.2999914563616813 1.0000   
         C         C         1.0       0.6521139494067282  0.2618298486679198  0.29388400296164213          1.0000   
         C         C         1.0       0.6635599913964749  0.2703441254526737  0.2659447960173754 1.0000   
         C         C         1.0       0.6933764338757976  0.2865113708028377  0.25886141429652715          1.0000   
         C         C         1.0       0.7137661090532025  0.29396364723145585           0.27988055370511683          1.0000   
         C         C         1.0       0.7061981364870896  0.29137684709372896           0.3087679856581736 1.0000   
         C         C         1.0       0.675428924187343   0.2738288325017849  0.316127958850009  1.0000   
         C         C         1.0       0.5713757071956329  0.20790485806455003           0.26768290909088943          1.0000   
         C         C         1.0       0.5597782314869487  0.20544785399218324           0.24126230352995948          1.0000   
         C         C         1.0       0.56989658240699    0.23179312177514794           0.22461726959915407          1.0000   
         C         C         1.0       0.5859366167568187  0.2582610931202677  0.23941895405419453          1.0000   
         C         C         1.0       0.5987514888760895  0.26014625336972386           0.2650509048929683 1.0000   
         C         C         1.0       0.5960648542363595  0.2345640073029896  0.27563536956411405          1.0000   
         C         C         1.0       0.5673632658573591  0.2270553207773747  0.19024312770525106          1.0000   
         C         C         1.0       0.477829621972909   0.1679356966629817  0.1530942602664596 1.0000   
         C         C         1.0       0.4813133092584532  0.17272723753583702           0.18210656649821594          1.0000   
         C         C         1.0       0.5095047272448265  0.19014972673610356           0.19404564227223267          1.0000   
         C         C         1.0       0.5352141030692408  0.20089365794839792           0.1776016230037405 1.0000   
         C         C         1.0       0.5321286941313232  0.1943614452375418  0.14856363144853518          1.0000   
         C         C         1.0       0.5040849757403939  0.17820185835866506           0.1362990235514271 1.0000   
         C         C         1.0       0.5946206301552157  0.2235146438770125  0.18448867838211527          1.0000   
         C         C         1.0       0.62438696925107    0.2468982968496757  0.1895995457502488 1.0000   
         C         C         1.0       0.6477885407788055  0.24417381703202054           0.18530680775455377          1.0000   
         C         C         1.0       0.6427835477150108  0.21932294713951897           0.17025650216424373          1.0000   
         C         C         1.0       0.6136361002300218  0.19561145432835073           0.16517376554451826          1.0000   
         C         C         1.0       0.5895409453611574  0.19806286289656932           0.17239639205503346          1.0000   
         C         C         1.0       0.5922217371274378  0.2697727260343643  0.15291566926092032          1.0000   
         C         C         1.0       0.5988597686682103  0.2962739157668155  0.14315872972820198          1.0000   
         C         C         1.0       0.583357161853419   0.3081910430500659  0.15640331924821455          1.0000   
         C         C         1.0       0.5588069834175788  0.29075642273501445           0.17513982980923426          1.0000   
         C         C         1.0       0.5543878591703042  0.2646348450350311  0.1849613550146006 1.0000   
         C         C         1.0       0.5727195638378237  0.25522374427643113           0.17538662612352007          1.0000   
         H         H         1.0       0.6289031413356305  0.21562794032212151           0.3478021555589718 1.0000   
         H         H         1.0       0.6180091711156281  0.20099464789754243           0.26014725292587476          1.0000   
         H         H         1.0       0.6265036746505308  0.1602948456675685  0.26246469718285165          1.0000   
         H         H         1.0       0.6435209996575654  0.17945601002063602           0.3523782455397319 1.0000   
         H         H         1.0       0.6487010718268369  0.26315713735131263           0.24836133002691582          1.0000   
         H         H         1.0       0.6997917388818606  0.29139439346071205           0.23637988923204967          1.0000   
         H         H         1.0       0.7222299827272165  0.30178967913242216           0.32569722867913975          1.0000   
         H         H         1.0       0.6679302547725446  0.2687286941998211  0.3383328533099448 1.0000   
         H         H         1.0       0.5617945069339627  0.1871196394065019  0.2794468564629582 1.0000   
         H         H         1.0       0.5474096476223921  0.18530704688621785           0.23067129195867464          1.0000   
         H         H         1.0       0.5916492254968546  0.278247591212303   0.2304973793213908 1.0000   
         H         H         1.0       0.6148023829860615  0.2811421144752986  0.27536840623075726          1.0000   
         H         H         1.0       0.4623035371931969  0.16638349459827684           0.19743930400372423          1.0000   
         H         H         1.0       0.5105645373565141  0.1945907961421403  0.21641499785691248          1.0000   
         H         H         1.0       0.5515628053565721  0.20543186197154076           0.13442287184666327          1.0000   
         H         H         1.0       0.5019876931962047  0.17298362250297225           0.11456458270285436          1.0000   
         H         H         1.0       0.6286011560049042  0.26748940808313937           0.19940759071871753          1.0000   
         H         H         1.0       0.6701847253936871  0.26344128562135083           0.18971889103492579          1.0000   
         H         H         1.0       0.6100081659066062  0.17592821896715796           0.1551966093102742 1.0000   
         H         H         1.0       0.5676220324382938  0.17817497807522184           0.16845512208018368          1.0000   
         H         H         1.0       0.604663656700943   0.2609837051927145  0.1454552496146423 1.0000   
         H         H         1.0       0.6160077932629369  0.30714056820106095           0.12683079510267958          1.0000   
         H         H         1.0       0.5474669713617685  0.302281254086204   0.1822397208468129 1.0000   
         H         H         1.0       0.5363178813170456  0.2513424556334895  0.19974100637074726          1.0000   
         C         C         1.0       0.6673438816091546  0.22605603664455287           0.1072776477583389 1.0000   
         C         C         1.0       0.6501700687913484  0.23760248952171437           0.09922214322200362          1.0000   
         C         C         1.0       0.6335931790081496  0.22765853483958132           0.07483194883163   1.0000   
         C         C         1.0       0.6327843650052506  0.20673197796660586           0.058057084128214864         1.0000   
         C         C         1.0       0.6516598991999162  0.19674030158298783           0.06532017008734224          1.0000   
         C         C         1.0       0.6672601370635338  0.20503592374230012           0.09134433381662013          1.0000   
         H         H         1.0       0.6436481481846487  0.2501494570580235  0.11265362135722772          1.0000   
         H         H         1.0       0.6568849731108403  0.3275561473240239  0.6127130850662712 1.0000   
         H         H         1.0       0.6552164182760641  0.18310489801917748           0.05072563233426797          1.0000   
         H         H         1.0       0.6815770576004825  0.19732259669229324           0.09738587256496578          1.0000   
         C         C         1.0       0.5937825522999316  0.13947403700739106           0.03758321145787735          1.0000   
         C         C         1.0       0.6026039862871149  0.26245774576950265           0.6097566665128333 1.0000   
         C         C         1.0       0.6273871126827679  0.2600261709696823  0.6074548096098793 1.0000   
         C         C         1.0       0.6263849666355927  0.23627910999737742           0.6169521220447777 1.0000   
         C         C         1.0       0.5783149732200611  0.1050160798759945  0.9990905682007484 1.0000   
         C         C         1.0       0.5830845776264169  0.11125068420280806           0.02766447038256259          1.0000   
         C         C         1.0       0.597797546044429   0.28520270058638797           0.593257354699465  1.0000   
         C         C         1.0       0.6170615202149963  0.2979167924568822  0.5642630965026105 1.0000   
         C         C         1.0       0.6228036988100036  0.3247949136249095  0.5530296785984775 1.0000   
         C         C         1.0       0.6345669472741242  0.3343089231550563  0.5269868987009837 1.0000   
         C         C         1.0       0.6424567429891979  0.3183458336306822  0.5093840340535607 1.0000   
         C         C         1.0       0.6349471468515759  0.2915280769265937  0.5190642818475991 1.0000   
         C         C         1.0       0.6193347037979726  0.2802991362835199  0.5446992655000881 1.0000   
         C         C         1.0       0.5502405804943423  0.24376455259683294           0.5676388563700762 1.0000   
         C         C         1.0       0.5278502579931288  0.23524866257136207           0.5495999909054918 1.0000   
         C         C         1.0       0.515420436133543   0.25305467402092363           0.5436921180933767 1.0000   
         C         C         1.0       0.5292687163170314  0.2798372758679377  0.5575800357068066 1.0000   
         C         C         1.0       0.5516309107217406  0.2875647173791401  0.5773780640557544 1.0000   
         C         C         1.0       0.5639984253172083  0.2704248812571336  0.580541039899786  1.0000   
         C         C         1.0       0.4863249287088818  0.24020481370225505           0.5202125328782455 1.0000   
         C         C         1.0       0.43216419836762743           0.14615296531582592          0.5367002096679654 1.0000   
         C         C         1.0       0.43873554743779375           0.1648865559634698 0.5595814575481555 1.0000   
         C         C         1.0       0.4522777989581057  0.19512045816944515           0.5557430700439833 1.0000   
         C         C         1.0       0.46075951191442105           0.20622490386635653          0.5276550862310443 1.0000   
         C         C         1.0       0.44585391128765844           0.18607753865603   0.5065222479218612 1.0000   
         C         C         1.0       0.4359284151438464  0.15749981749807407           0.5103630131835428 1.0000   
         C         C         1.0       0.5100492175088078  0.2495401320765304  0.4930533629469616 1.0000   
         C         C         1.0       0.525591608911294   0.27815640427098753           0.4810870579177795 1.0000   
         C         C         1.0       0.5454703971348948  0.2848621022011049  0.4587286861477041 1.0000   
         C         C         1.0       0.5485198567653653  0.2638363912698499  0.4462210895052436 1.0000   
         C         C         1.0       0.5326876435537677  0.23510731379292496           0.4570479747627933 1.0000   
         C         C         1.0       0.5127858536097264  0.22875028083308466           0.4799944793703574 1.0000   
         C         C         1.0       0.45600289230674396           0.2572420962605969 0.4964319014203633 1.0000   
         C         C         1.0       0.4381458307000844  0.2696153431711324  0.49787878025859894          1.0000   
         C         C         1.0       0.4314378293403547  0.2770262149916095  0.5235109185181147 1.0000   
         C         C         1.0       0.43986727068882653           0.270618000482262  0.5485054007797333 1.0000   
         C         C         1.0       0.4592603107350299  0.2609758874832033  0.547029957794322  1.0000   
         C         C         1.0       0.46858165052970663           0.25582738214913314          0.5210781036130163 1.0000   
         H         H         1.0       0.5963576027258989  0.1437682699205222  0.06071501531806627          1.0000   
         H         H         1.0       0.6491801260566978  0.27686718674918026           0.5973873326274548 1.0000   
         H         H         1.0       0.6450219665062964  0.2346537892661915  0.6142795779600813 1.0000   
         H         H         1.0       0.5750895205568806  0.09272173058691591           0.0407383716733003 1.0000   
         H         H         1.0       0.616558867266886   0.33766232168911914           0.5656663065774117 1.0000   
         H         H         1.0       0.6413907491662019  0.3573645161344905  0.5183969994081676 1.0000   
         H         H         1.0       0.6388727303614522  0.27700795076911866           0.505320735980115  1.0000   
         H         H         1.0       0.612608277340863   0.2592957509061177  0.5506294797018955 1.0000   
         H         H         1.0       0.5605096566893037  0.23101599190806085           0.5723610375422202 1.0000   
         H         H         1.0       0.5204562024764391  0.2149983756055205  0.5372655103736668 1.0000   
         H         H         1.0       0.5252749523573598  0.29709304849149637           0.5516016088795883 1.0000   
         H         H         1.0       0.563422258728825   0.3092315926514534  0.5860110743513285 1.0000   
         H         H         1.0       0.4413524775095437  0.15872004783014948           0.5808193350989523 1.0000   
         H         H         1.0       0.46202544382877436           0.208176638078217  0.5751883921015751 1.0000   
         H         H         1.0       0.44584192283047797           0.19520528217592073          0.48418007013847614          1.0000   
         H         H         1.0       0.4305269484057373  0.14567138466526536           0.4903205095131874 1.0000   
         H         H         1.0       0.5224262445333576  0.2937725365256238  0.4900633230688267 1.0000   
         H         H         1.0       0.5591452082086985  0.3075866401208307  0.4501449501758184 1.0000   
         H         H         1.0       0.5347492107220799  0.21805024385647956           0.4479008214779264 1.0000   
         H         H         1.0       0.5022907967711264  0.205966485891343   0.489161538489371  1.0000   
         H         H         1.0       0.456381351545567   0.24648482057102508           0.47713201939817007          1.0000   
         H         H         1.0       0.42884427806434233           0.2691156010583845 0.4783639014254537 1.0000   
         H         H         1.0       0.44215131516000006           0.22082141930226812          0.0804016794062431 1.0000   
         H         H         1.0       0.4632910288709287  0.2516156200421579  0.5670455209246223 1.0000   
         C         C         1.0       0.9239103825493977  0.35959114877405035           0.14991149285373687          1.0000   
         C         C         1.0       0.9083265738517209  0.3681515059038055  0.16619549814336881          1.0000   
         C         C         1.0       0.8939193192186321  0.35331551482189816           0.19057766222201605          1.0000   
         C         C         1.0       0.892596433000921   0.32810976141882153           0.199072329177782  1.0000   
         C         C         1.0       0.9084873268345516  0.31984574967362595           0.18331634178529077          1.0000   
         C         C         1.0       0.9247328167607464  0.3359799442362067  0.15930979313494525          1.0000   
         H         H         1.0       0.9138164369184744  0.3895629747505416  0.16042527643596788          1.0000   
         H         H         1.0       0.8844769613667318  0.3640238877502522  0.20401955871065397          1.0000   
         H         H         1.0       0.9103267482544016  0.30190006007244113           0.19033446531728584          1.0000   
         H         H         1.0       0.9365096346510328  0.3289633009093742  0.14663211084682246          1.0000   
         C         C         1.0       0.8445570421113932  0.2630091478797441  0.1924509359773754 1.0000   
         C         C         1.0       0.856448609984179   0.2740075444255976  0.21938947520459878          1.0000   
         C         C         1.0       0.8556608747640868  0.25407631313199486           0.23870591960155615          1.0000   
         C         C         1.0       0.8414905615040129  0.22448806333603932           0.23181871316784317          1.0000   
         C         C         1.0       0.8274082879614413  0.21349645931410025           0.20630695292474566          1.0000   
         C         C         1.0       0.8293959509946457  0.23266692218843654           0.18675114491418568          1.0000   
         C         C         1.0       0.8721993742395223  0.308841568462237   0.2250413435580127 1.0000   
         C         C         1.0       0.8400641255261236  0.3048005191396264  0.23362311698829924          1.0000   
         C         C         1.0       0.8285973817941719  0.29368356832842335           0.2603548222780658 1.0000   
         C         C         1.0       0.8036498250832135  0.2931473785593015  0.27036366826366603          1.0000   
         C         C         1.0       0.786538758816736   0.29802482121896545           0.2518118503947275 1.0000   
         C         C         1.0       0.7975674550633566  0.30859824847720657           0.22488073966249983          1.0000   
         C         C         1.0       0.8236093354354965  0.31204011892088607           0.21567707072005857          1.0000   
         C         C         1.0       0.9161550192036627  0.312951781007988   0.25393551763631084          1.0000   
         C         C         1.0       0.9283242968745938  0.31558817211739687           0.28014931018725003          1.0000   
         C         C         1.0       0.9210535459386201  0.3255559321524373  0.30375109867502914          1.0000   
         C         C         1.0       0.9076052056690651  0.34086966895694165           0.29745848367031075          1.0000   
         C         C         1.0       0.8951574719301798  0.33899825369592707           0.27032593636174784          1.0000   
         C         C         1.0       0.8965318667537687  0.3223578780443839  0.2501217396435394 1.0000   
         C         C         1.0       0.9248580067533183  0.3190886774674824  0.3361060145092066 1.0000   
         C         C         1.0       0.8491833515801708  0.22703740512636658           0.3326735259702606 1.0000   
         C         C         1.0       0.8795101148393452  0.23397803161924233           0.3332776206186659 1.0000   
         C         C         1.0       0.9040334056378695  0.262994595569195   0.3339422070680871 1.0000   
         C         C         1.0       0.8980564496995398  0.2848550109918739  0.3367075950705287 1.0000   
         C         C         1.0       0.8680182792682336  0.27776812871540973           0.3361636375777517 1.0000   
         C         C         1.0       0.8438182253048516  0.24946744676448693           0.3336225274738584 1.0000   
         C         C         1.0       0.9230558436652987  0.3380769823530459  0.3611738533080631 1.0000   
         C         C         1.0       0.9322154677941019  0.3672634164448167  0.3584069375621335 1.0000   
         C         C         1.0       0.9223624602666137  0.3801769674449221  0.377615285352641  1.0000   
         C         C         1.0       0.9081768283577092  0.36582973077263986           0.4026678665443166 1.0000   
         C         C         1.0       0.900494435844434   0.3374448942723455  0.40652364529466045          1.0000   
         C         C         1.0       0.9077568768695238  0.32418774236711495           0.38591357161084316          1.0000   
         C         C         1.0       0.9658277647397736  0.3167535973103415  0.36541368126232665          1.0000   
         C         C         1.0       0.9945802565847123  0.32153353375906224           0.3679989584807522 1.0000   
         C         C         1.0       0.01713493909003927           0.34156595762550457          0.3502861555544118 1.0000   
         C         C         1.0       0.010767589625366947          0.35287761203857837          0.3278435650962535 1.0000   
         C         C         1.0       0.9819905850698828  0.3472688089420005  0.3234491032938218 1.0000   
         C         C         1.0       0.9586338272200468  0.3271463260453691  0.3406225794530206 1.0000   
         H         H         1.0       0.8461905757482606  0.27589795983506765           0.17447219892268498          1.0000   
         H         H         1.0       0.8625986259244919  0.2587453697633619  0.2603885292579342 1.0000   
         H         H         1.0       0.8403978885308018  0.20950575654828524           0.2483083070308104 1.0000   
         H         H         1.0       0.8186020063083026  0.22533502555603424           0.16528718914036428          1.0000   
         H         H         1.0       0.842395207539153   0.29107161733718223           0.2775013698294231 1.0000   
         H         H         1.0       0.797764860448418   0.28702304665646666           0.291574981739853  1.0000   
         H         H         1.0       0.7820452350560522  0.3081858175771134  0.2097079773585385 1.0000   
         H         H         1.0       0.831753201493666   0.31780872471770627           0.19401412094684164          1.0000   
         H         H         1.0       0.9182290913438536  0.3012672217990069  0.23630861164356898          1.0000   
         H         H         1.0       0.9407488361791031  0.30571980849121777           0.2826052877387626 1.0000   
         H         H         1.0       0.8981191658709472  0.346631817365352   0.3139143629602955 1.0000   
         H         H         1.0       0.8826170552416681  0.3496976769276957  0.2669694763653257 1.0000   
         H         H         1.0       0.8840554642945081  0.2166996446520233  0.3308080063418318 1.0000   
         H         H         1.0       0.9258113625270109  0.2674645736748761  0.33121477564923085          1.0000   
         H         H         1.0       0.8617371923673821  0.2931935370392476  0.33835633532982606          1.0000   
         H         H         1.0       0.8231413350414641  0.2463038340380363  0.3341615897511778 1.0000   
         H         H         1.0       0.943301109101947   0.3801187198075375  0.33883841020953137          1.0000   
         H         H         1.0       0.9312260750598446  0.403266910186775   0.37366634639292723          1.0000   
         H         H         1.0       0.8881620943952298  0.32595814083819563           0.42624406209158916          1.0000   
         H         H         1.0       0.9002310011157101  0.3022839557899525  0.38527437063048636          1.0000   
         H         H         1.0       0.9483746912945069  0.30176390128538855           0.37906916607634866          1.0000   
         H         H         1.0       0.9980920237267621  0.3096807510771771  0.38403974307643224          1.0000   
         H         H         1.0       0.030454285333099795          0.36791563144120615          0.3140932878842885 1.0000   
         H         H         1.0       0.9776637988109877  0.3583087001696356  0.30555246695264665          1.0000   
         C         C         1.0       0.856794862054728   0.3496573089588484  0.4600434799018737 1.0000   
         C         C         1.0       0.8382757095595607  0.36053526285183707           0.4582605776028907 1.0000   
         C         C         1.0       0.8095076678919919  0.34505090218735013           0.47071323535482834          1.0000   
         C         C         1.0       0.7972283214092477  0.31684616324469383           0.48051698573032814          1.0000   
         C         C         1.0       0.8154318733543003  0.3058429299908122  0.48003924469150216          1.0000   
         C         C         1.0       0.8456173165672443  0.32295276640320447           0.47274195227593946          1.0000   
         H         H         1.0       0.8488913096787237  0.3853024238742083  0.45272096642022336          1.0000   
         H         H         1.0       0.798565822548572   0.3562572272531734  0.4715424470836263 1.0000   
         H         H         1.0       0.808469360187126   0.2851097892104342  0.4887442297355376 1.0000   
         H         H         1.0       0.8595024289005869  0.3141819958439364  0.4722955056859982 1.0000   
         C         C         1.0       0.7511103193915706  0.2527382255654185  0.4602310402330304 1.0000   
         C         C         1.0       0.7422279680638324  0.26425044916000584           0.4831065337605678 1.0000   
         C         C         1.0       0.7130644335764871  0.24559333104283765           0.4923562033149094 1.0000   
         C         C         1.0       0.6925235730713529  0.2187155919733747  0.4793870351137624 1.0000   
         C         C         1.0       0.7020754971306129  0.20868396768075875           0.4572160428287241 1.0000   
         C         C         1.0       0.7317760387291387  0.22598510059006935           0.4473576105439904 1.0000   
         C         C         1.0       0.7645129421051644  0.2979556420906456  0.4959870496974222 1.0000   
         C         C         1.0       0.7425264286732612  0.3097608613486009  0.4918083562101173 1.0000   
         C         C         1.0       0.7357131106805442  0.3212625900575062  0.5142980602561482 1.0000   
         C         C         1.0       0.7206068014446694  0.3345723350267559  0.5102880551329193 1.0000   
         C         C         1.0       0.7088435124225126  0.3341015559988497  0.4830560418036026 1.0000   
         C         C         1.0       0.7141884674844433  0.3205584306076552  0.46054024030251217          1.0000   
         C         C         1.0       0.733139569582381   0.31180170800340623           0.4647938423457856 1.0000   
         C         C         1.0       0.7660646740124748  0.2714806120701334  0.5442617563448684 1.0000   
         C         C         1.0       0.7736987042274498  0.27317678747296736           0.5724008554103894 1.0000   
         C         C         1.0       0.7913462920613351  0.2995484677535243  0.5867210842163034 1.0000   
         C         C         1.0       0.7988218438399121  0.3251539498380742  0.5715662795587104 1.0000   
         C         C         1.0       0.792490890761021   0.3233258961469758  0.5431803131346739 1.0000   
         C         C         1.0       0.7738626513979585  0.2969723144788564  0.5286121831187496 1.0000   
         C         C         1.0       0.8969913454416857  0.26271692516470074           0.030423891238640973         1.0000   
         C         C         1.0       0.8717760478679631  0.17981639763530005           0.07758398163847094          1.0000   
         C         C         1.0       0.8765414586185608  0.18167361473484003           0.04813581303465208          1.0000   
         C         C         1.0       0.8826982850149685  0.20665761956539636           0.03327964713885745          1.0000   
         C         C         1.0       0.8849710034625884  0.23096890963150843           0.04820452259130814          1.0000   
         C         C         1.0       0.8796664663473714  0.22695950259673248           0.07789219106102771          1.0000   
         C         C         1.0       0.8759386424513707  0.20286920680301504           0.09286034086341288          1.0000   
         C         C         1.0       0.9102452501074675  0.29020063979671556           0.053044679667838324         1.0000   
         C         C         1.0       0.9396907992923552  0.3158999815283334  0.05457147592669731          1.0000   
         C         C         1.0       0.9452637289701945  0.3417283006470139  0.06764709366694661          1.0000   
         C         C         1.0       0.9223321950918744  0.34225181751801537           0.08099780305950213          1.0000   
         C         C         1.0       0.8950330523685568  0.31596922876285083           0.08475526483545173          1.0000   
         C         C         1.0       0.888838007709999   0.290393075234051   0.07107536829615464          1.0000   
         C         C         1.0       0.9462867783514293  0.26572777527634256           0.019537293850434567         1.0000   
         C         C         1.0       0.9703906295671424  0.271634872229867   0.0028855801921441326        1.0000   
         C         C         1.0       0.9738361325080475  0.28320392959962415           0.9739747851216951 1.0000   
         C         C         1.0       0.8846748377740268  0.36121376872489297           0.615114696419802  1.0000   
         C         C         1.0       0.8561211418684029  0.3363532581182106  0.6090482788120176 1.0000   
         C         C         1.0       0.9226225555819607  0.2683049678353814  0.008335193543201225         1.0000   
         H         H         1.0       0.7724608409232405  0.2659051601194429  0.4479745322530101 1.0000   
         H         H         1.0       0.7057972978477075  0.25250286399763877           0.511094146900458  1.0000   
         H         H         1.0       0.6707981425978187  0.20267606342710603           0.4891899599492361 1.0000   
         H         H         1.0       0.7403865626499435  0.21778296475641062           0.4304294890520421 1.0000   
         H         H         1.0       0.7442632983391974  0.32235555348185324           0.5362330643557089 1.0000   
         H         H         1.0       0.7163626886371923  0.344309190613149   0.527734377765655  1.0000   
         H         H         1.0       0.7062637424979339  0.31866413593412934           0.43941577215278527          1.0000   
         H         H         1.0       0.7411606176897486  0.30620482062864374           0.44643783648009006          1.0000   
         H         H         1.0       0.7504099847607857  0.24836792647484127           0.5366357223465715 1.0000   
         H         H         1.0       0.7645960407185827  0.2529455274996242  0.5844947327414411 1.0000   
         H         H         1.0       0.8131774737664571  0.3470090104239579  0.5809880291855472 1.0000   
         H         H         1.0       0.7996213854597436  0.34317241530528253           0.531705704679111  1.0000   
         H         H         1.0       0.8737851487420568  0.1631996061395917  0.03564646303282415          1.0000   
         H         H         1.0       0.887608054607462   0.2076122976116889  0.009098382631104629         1.0000   
         H         H         1.0       0.883921222216712   0.2446906214847433  0.09282746303596667          1.0000   
         H         H         1.0       0.8680474657578081  0.20053752463604393           0.1139972204450592 1.0000   
         H         H         1.0       0.9591841516487181  0.31803576329779665           0.04256239830683861          1.0000   
         H         H         1.0       0.9657523829890494  0.36186177315688217           0.06291390251453535          1.0000   
         H         H         1.0       0.877889992560143   0.31494219128963447           0.09915433300189604          1.0000   
         H         H         1.0       0.8651959234133807  0.27181180679888667           0.07447398137942285          1.0000   
         H         H         1.0       0.9457330369544567  0.259255337235898   0.041043090400372906         1.0000   
         H         H         1.0       0.9872151060273351  0.2689136080490859  0.014187283352415037         1.0000   
         H         H         1.0       0.9038718264581765  0.3703972453982032  0.5988215370903572 1.0000   
         H         H         1.0       0.8513333223580223  0.3237893419274117  0.5891564387755069 1.0000   
         C         C         1.0       0.6986993087701335  0.977999400402084   0.2831800960837394 1.0000   
         C         C         1.0       0.6812210079957803  0.9665503608343962  0.25974219302506385          1.0000   
         C         C         1.0       0.6825122456380978  0.9847893304931592  0.23809658937897638          1.0000   
         C         C         1.0       0.7030326283914898  0.014713557363549734         0.23991453281475852          1.0000   
         C         C         1.0       0.7207157467642552  0.026083515290700188         0.2643079774025701 1.0000   
         C         C         1.0       0.7166052406331419  0.008033371728198624         0.2864203392412906 1.0000   
         H         H         1.0       0.6644987538684617  0.9436882820677888  0.25791611765933453          1.0000   
         H         H         1.0       0.6664003226436445  0.9746968717618552  0.2190115166979651 1.0000   
         H         H         1.0       0.7383853407956866  0.04896285166083292           0.2666649900235476 1.0000   
         H         H         1.0       0.7263944460164882  0.014957951232793976         0.307843221371158  1.0000   
         C         C         1.0       0.7250017131379881  0.08415342292193895           0.238654224793487  1.0000   
         C         C         1.0       0.7286640417619425  0.07016491372580758           0.21516784553669321          1.0000   
         C         C         1.0       0.7486617578410308  0.08558629621160185           0.19332590631502705          1.0000   
         C         C         1.0       0.7626017140043566  0.11629910336971465           0.1929709429944301 1.0000   
         C         C         1.0       0.7592564240372983  0.1311746035047586  0.21491627584389258          1.0000   
         C         C         1.0       0.7401621566388991  0.11546501821795868           0.23764729848903265          1.0000   
         C         C         1.0       0.7079158208103892  0.03558269572346662           0.21224307873424184          1.0000   
         C         C         1.0       0.6759601194277328  0.03133944007631362           0.20379345392717144          1.0000   
         C         C         1.0       0.6753080075981502  0.042348393215310365         0.1763047463159243 1.0000   
         C         C         1.0       0.6504396063012515  0.04171013824419956           0.16783481846556456          1.0000   
         C         C         1.0       0.6279902770758808  0.035202252519418   0.18703570357543006          1.0000   
         C         C         1.0       0.6289026966547333  0.02671686689328645           0.21445351721051234          1.0000   
         C         C         1.0       0.6519015276871685  0.02419232646462932           0.222105885969475  1.0000   
         C         C         1.0       0.7487141879298727  0.026931406307632688         0.19632106552259374          1.0000   
         C         C         1.0       0.7638684108401388  0.019769022740556474         0.17829519794671492          1.0000   
         C         C         1.0       0.7530505278879055  0.00815179841326863           0.1510513684868874 1.0000   
         C         C         1.0       0.724498132030927   0.0027724041514576303        0.14441609968476862          1.0000   
         C         C         1.0       0.7075524725244009  0.008668525438903396         0.1639554873408707 1.0000   
         C         C         1.0       0.7204274095327508  0.021339548100232975         0.19008835328380794          1.0000   
         C         C         1.0       0.7741363465011248  0.006524674280616871         0.12758913011908973          1.0000   
         C         C         1.0       0.8171124834037438  0.10073967745200244           0.10936266420845768          1.0000   
         C         C         1.0       0.8302567005769186  0.09070657488106514           0.1286052400798252 1.0000   
         C         C         1.0       0.8191890054461545  0.06115866912574908           0.13012068436144977          1.0000   
         C         C         1.0       0.7941439191139339  0.04105385181524679           0.11760155733198285          1.0000   
         C         C         1.0       0.8011963639508317  0.10867195231741356           0.6457662626118782 1.0000   
         C         C         1.0       0.8123800009906337  0.13861225730228285           0.6424632540939018 1.0000   
         C         C         1.0       0.7485753395801231  0.04257968612874774           0.6398280138657393 1.0000   
         C         C         1.0       0.7433827399320506  0.01468973157544795           0.6355339609878202 1.0000   
         C         C         1.0       0.7320524880201608  0.9981289430092661  0.6116163911025049 1.0000   
         C         C         1.0       0.7249752555141461  0.010256145798744232         0.5897684271029091 1.0000   
         C         C         1.0       0.7334205252104027  0.04034658776034039           0.5906121875742574 1.0000   
         C         C         1.0       0.7431286483289061  0.05445108955672362           0.6170406462381578 1.0000   
         C         C         1.0       0.820573916000065   0.0007999212643579057        0.1314425540039971 1.0000   
         C         C         1.0       0.8373819198346748  0.9912447257824616  0.14559347674294237          1.0000   
         C         C         1.0       0.824538066716251   0.971665178242623   0.16735766075275155          1.0000   
         C         C         1.0       0.7948667072496954  0.9596202376065657  0.1754762355349515 1.0000   
         C         C         1.0       0.7792124060990205  0.9696388644658285  0.16194604764888215          1.0000   
         C         C         1.0       0.7932349116869887  0.9935556987760809  0.14242647399578937          1.0000   
         H         H         1.0       0.7099152080097892  0.071995673887145   0.25680342825054187          1.0000   
         H         H         1.0       0.750686174736531   0.07442164316305155           0.1734912309716063 1.0000   
         H         H         1.0       0.7748010708621045  0.1295092573805143  0.17354186822992457          1.0000   
         H         H         1.0       0.739310974496901   0.12463234431991214           0.25773613652994043          1.0000   
         H         H         1.0       0.6932157953441104  0.048088672903836116         0.16091541596114162          1.0000   
         H         H         1.0       0.6499322971606265  0.04480946917610895           0.14616169318717825          1.0000   
         H         H         1.0       0.6091993251918439  0.018735607772455642         0.22845959836839738          1.0000   
         H         H         1.0       0.6487136572798515  0.014253701759457948         0.24297416280339623          1.0000   
         H         H         1.0       0.7586217606952449  0.033878660673935856         0.21694165968697013          1.0000   
         H         H         1.0       0.7848833468155965  0.025182799656706223         0.1862109138912812 1.0000   
         H         H         1.0       0.7145552827793008  0.9935555133183653  0.1238066675424083 1.0000   
         H         H         1.0       0.6826139803086075  0.9987341098805878  0.16043857648208673          1.0000   
         H         H         1.0       0.849847089061914   0.10722872094632503           0.14087107382522654          1.0000   
         H         H         1.0       0.8270399753220445  0.05422186237176829           0.1469823092748788 1.0000   
         H         H         1.0       0.8033583898708873  0.09643877196978434           0.6292082419699782 1.0000   
         H         H         1.0       0.8270652434106823  0.14815431836137552           0.6231898595152    1.0000   
         H         H         1.0       0.7456844387784691  0.0035132642890682853        0.6524999487658819 1.0000   
         H         H         1.0       0.7244044924796255  0.974877713423766   0.611566311517609  1.0000   
         H         H         1.0       0.7271912263862413  0.04980305686919384           0.5742052797407473 1.0000   
         H         H         1.0       0.7425632741212347  0.07394382021347123           0.6198533889314027 1.0000   
         H         H         1.0       0.8284289903057735  0.014820200478250722         0.11223303523231061          1.0000   
         H         H         1.0       0.8599263800490418  0.997093398112093   0.13746302624926304          1.0000   
         H         H         1.0       0.783791890735489   0.9422229573838005  0.19054424773333578          1.0000   
         H         H         1.0       0.7550034877482041  0.9586911812295507  0.168386326862902  1.0000   
         C         C         1.0       0.7115189130569037  0.014392504645255988         0.513330479175968  1.0000   
         C         C         1.0       0.6940876645319946  0.9970402673561978  0.4914998530654711 1.0000   
         C         C         1.0       0.6832940326206675  0.0078062059290970875        0.4707149397205975 1.0000   
         C         C         1.0       0.6899212080306564  0.03623789530519028           0.470822160899454  1.0000   
         C         C         1.0       0.7088695317177761  0.052837342376837126         0.4923255954727275 1.0000   
         C         C         1.0       0.7183664674204875  0.04246965936611846           0.5140769364342813 1.0000   
         H         H         1.0       0.6899654609366819  0.9755879822606028  0.48833295324540876          1.0000   
         H         H         1.0       0.6723056594045635  0.993792242350452   0.45188228419692783          1.0000   
         H         H         1.0       0.7155133011482192  0.0749476532083444  0.496083604133508  1.0000   
         H         H         1.0       0.7345254496787625  0.06032783555613297           0.5283678833287591 1.0000   
         C         C         1.0       0.6643327623794525  0.07712135373532392           0.47349673522807484          1.0000   
         C         C         1.0       0.6783782274912473  0.07446646360370024           0.44940294900788197          1.0000   
         C         C         1.0       0.6916964223000396  0.09805029426197027           0.42944442949832384          1.0000   
         C         C         1.0       0.6931812230328556  0.12408451253948755           0.4331024381449225 1.0000   
         C         C         1.0       0.6812966624161002  0.1279968512255583  0.4581181182136042 1.0000   
         C         C         1.0       0.667210781661503   0.10420986121897544           0.47741077743398136          1.0000   
         C         C         1.0       0.6810367742863609  0.047361280251706495         0.44266319636404905          1.0000   
         C         C         1.0       0.6493140986201835  0.026019288043268363         0.42936617327390875          1.0000   
         C         C         1.0       0.6416651090071724  0.03323553826702286           0.4039024428016309 1.0000   
         C         C         1.0       0.6143889905632558  0.012371916075358147         0.39101328232580895          1.0000   
         C         C         1.0       0.5940966780959533  0.9856782926698339  0.40451893640354813          1.0000   
         C         C         1.0       0.5992171542487594  0.9806565597983211  0.432263129959742  1.0000   
         C         C         1.0       0.6252755742177688  0.002068330374499938         0.4451105311443055 1.0000   
         C         C         1.0       0.7385678923035414  0.07582286061197241           0.42803769576584166          1.0000   
         C         C         1.0       0.7617560648094571  0.07936145308093812           0.41100339504955197          1.0000   
         C         C         1.0       0.7582955665514794  0.05955557654987986           0.3901721842665891 1.0000   
         C         C         1.0       0.7280672787192859  0.03861706440443258           0.3813020338316648 1.0000   
         C         C         1.0       0.703851743274317   0.03385430900965902           0.39819765661535445          1.0000   
         C         C         1.0       0.7090769019324257  0.053840479404672514         0.4205321089895096 1.0000   
         C         C         1.0       0.7861566407408682  0.06205984960086375           0.37310916521848997          1.0000   
         C         C         1.0       0.8113118993534968  0.14234860538700347           0.32579037909538777          1.0000   
         C         C         1.0       0.8322571041998759  0.1432216005335043  0.3444013644618083 1.0000   
         C         C         1.0       0.8241813596899228  0.11839163262529429           0.35970327948811326          1.0000   
         C         C         1.0       0.7973909604623133  0.0912171375802695  0.35413091276621744          1.0000   
         C         C         1.0       0.7796801101797448  0.09087328090687685           0.3332303810580306 1.0000   
         C         C         1.0       0.7845610211061628  0.11576446561026216           0.3217118987823436 1.0000   
         C         C         1.0       0.7769112023777152  0.030908752325991218         0.3586219235498932 1.0000   
         C         C         1.0       0.757091834284473   0.0031082020797408294        0.37088377623603724          1.0000   
         C         C         1.0       0.7431298167054801  0.9784317649327863  0.3538291887581646 1.0000   
         C         C         1.0       0.7506526705984062  0.9799822949202288  0.3252059399816152 1.0000   
         C         C         1.0       0.7744183202010875  0.006560626838916006         0.3142061731858048 1.0000   
         C         C         1.0       0.7877137682258936  0.03134460287912022           0.3310849287739176 1.0000   
         C         C         1.0       0.8403031805900286  0.07471144817419995           0.38153865507222545          1.0000   
         C         C         1.0       0.8612670264628496  0.07240992835049598           0.39603482472673945          1.0000   
         C         C         1.0       0.8552888900302017  0.06274691980919256           0.424778603160988  1.0000   
         C         C         1.0       0.8275466081167798  0.054754155573843555         0.437761834288085  1.0000   
         C         C         1.0       0.8063576173259146  0.05588802958893191           0.4210826776246017 1.0000   
         C         C         1.0       0.813393880653296   0.06752880082563384           0.3940604162141793 1.0000   
         H         H         1.0       0.6506993568015612  0.059721682818155264         0.48838680376052523          1.0000   
         H         H         1.0       0.7040522265874193  0.09744845337444151           0.41149136701972083          1.0000   
         H         H         1.0       0.7061024931182545  0.14154684324988334           0.419098144729033  1.0000   
         H         H         1.0       0.6619983315219582  0.10918694140389074           0.49889522463629077          1.0000   
         H         H         1.0       0.6570047787949209  0.05120127202549973           0.3913005365884836 1.0000   
         H         H         1.0       0.6105694755001544  0.015701727480781136         0.369537505374002  1.0000   
         H         H         1.0       0.5829335296638131  0.9601010532205678  0.44350953277749683          1.0000   
         H         H         1.0       0.6295825836133132  0.000708118223507137         0.4668563703951486 1.0000   
         H         H         1.0       0.7416909010606698  0.08905700115249027           0.445774300288889  1.0000   
         H         H         1.0       0.7839864626182688  0.096483576943307   0.41764830215079646          1.0000   
         H         H         1.0       0.724500773233372   0.024340438946769405         0.3628281870023753 1.0000   
         H         H         1.0       0.6810419657536113  0.01597411987467412           0.39230921222355075          1.0000   
         H         H         1.0       0.8542578546439479  0.16376585791030945           0.34845940016182164          1.0000   
         H         H         1.0       0.8399907764020845  0.12167263840312614           0.37655755034746935          1.0000   
         H         H         1.0       0.7595867974443735  0.070523206971562   0.3286208787771585 1.0000   
         H         H         1.0       0.7702262631583214  0.11304289013282316           0.30475531217211094          1.0000   
         H         H         1.0       0.7528556294101714  0.001432254796864596         0.3928196493379265 1.0000   
         H         H         1.0       0.7250727203557429  0.9557613211184758  0.36333348827567336          1.0000   
         H         H         1.0       0.7813497202188648  0.008785321115573952         0.29187284055911417          1.0000   
         H         H         1.0       0.8066729838157348  0.05270875088988736           0.32204765401626234          1.0000   
         H         H         1.0       0.8454656187550641  0.08308214779180734           0.3599623432252914 1.0000   
         H         H         1.0       0.8827432976949312  0.07858323264863021           0.38495462615213955          1.0000   
         H         H         1.0       0.8204994670769009  0.04190541812596682           0.4575772587153268 1.0000   
         H         H         1.0       0.782304567264952   0.042809511541776146         0.4257933451851037 1.0000   
         C         C         1.0       0.4111186733608792  0.9056996216677334  0.10237251035565487          1.0000   
         C         C         1.0       0.4267222204161438  0.9185438438004415  0.12705036151731297          1.0000   
         C         C         1.0       0.45016742368831475           0.948219337604741  0.12554524653570404          1.0000   
         C         C         1.0       0.4558634599631358  0.9651292523973181  0.10029527853717927          1.0000   
         C         C         1.0       0.4380141432943654  0.9503029077436559  0.07692654715170755          1.0000   
         C         C         1.0       0.41642063457768586           0.9214670627821375 0.07776159802322145          1.0000   
         H         H         1.0       0.42184343087510145           0.9060632814858325 0.14734005767210454          1.0000   
         H         H         1.0       0.46487171273896905           0.9619102189696831 0.14249900424099005          1.0000   
         H         H         1.0       0.4393516973504929  0.9636400306134022  0.05850805998006647          1.0000   
         H         H         1.0       0.40084480897583596           0.9084873163475294 0.06180933067026265          1.0000   
         C         C         1.0       0.5017159560383256  0.0015025099735701541        0.04686139795695898          1.0000   
         C         C         1.0       0.4911840536364432  0.013325969656443615         0.06634348003322545          1.0000   
         C         C         1.0       0.4919662721253217  0.03763694617897584           0.05604957823327328          1.0000   
         C         C         1.0       0.5059148887802085  0.050936634351698595         0.03025375241234629          1.0000   
         C         C         1.0       0.5167248215492314  0.03849390128158814           0.013037755341416267         1.0000   
         C         C         1.0       0.5167081155187991  0.01429178798855979           0.021639368459571037         1.0000   
         C         C         1.0       0.47897155756370746           0.0005292242708667683        0.09888390120964094          1.0000   
         C         C         1.0       0.5108749835093596  0.013628906730367873         0.11431338564781089          1.0000   
         C         C         1.0       0.5286889622495312  0.04326284303298755           0.12471229583507903          1.0000   
         C         C         1.0       0.5570042203053788  0.05504501565329645           0.13485194696191963          1.0000   
         C         C         1.0       0.5669886827116799  0.037471640700546205         0.13854369962652702          1.0000   
         C         C         1.0       0.5510342522986216  0.008244348606488039         0.128546593095086  1.0000   
         C         C         1.0       0.5225439680313907  0.9959020093752077  0.11673698815396805          1.0000   
         C         C         1.0       0.4331365951533589  0.005902583821703056         0.1012228149594919 1.0000   
         C         C         1.0       0.4126038325463882  0.009617764965054176         0.11543326421668686          1.0000   
         C         C         1.0       0.41365365609711197           0.01279404304751397          0.14550615851305715          1.0000   
         C         C         1.0       0.43972884535435847           0.01749350210408096          0.1593773698064621 1.0000   
         C         C         1.0       0.4584600833090503  0.011985612711764126         0.14459712714396672          1.0000   
         C         C         1.0       0.4575542234935317  0.008331455372880603         0.11509294208057712          1.0000   
         C         C         1.0       0.3864221439842987  0.011035420958547038         0.16256181996892974          1.0000   
         C         C         1.0       0.41226266971832914           0.10334627523633008          0.15523740133883576          1.0000   
         C         C         1.0       0.39555188610086306           0.08269269317169581          0.13521743835476857          1.0000   
         C         C         1.0       0.3904170623306857  0.05526496037841855           0.13658190381939816          1.0000   
         C         C         1.0       0.39789262631199457           0.04572116259951531          0.16118174081330158          1.0000   
         C         C         1.0       0.4129982142959236  0.06569472270284171           0.18199154562764444          1.0000   
         C         C         1.0       0.4201778536014656  0.09444468869190867           0.17971524049157625          1.0000   
         C         C         1.0       0.3829199310779092  0.9993370719361961  0.1942292497472854 1.0000   
         C         C         1.0       0.3858859046708022  0.975864333905689   0.1986822046997747 1.0000   
         C         C         1.0       0.38039885515529154           0.9613021376885629 0.22462560898603165          1.0000   
         C         C         1.0       0.3737576719688873  0.9714173390181028  0.24845474466336687          1.0000   
         C         C         1.0       0.3718474890354292  0.9959536215282374  0.24535733652014152          1.0000   
         C         C         1.0       0.373796959164209   0.007600399705481431         0.21854294842582334          1.0000   
         C         C         1.0       0.33044375738640114           0.9958153553217503 0.15163590084389342          1.0000   
         C         C         1.0       0.3014696527092746  0.9776297729698248  0.1396441086551834 1.0000   
         C         C         1.0       0.29436919191601635           0.9525725547970855 0.12456383149683435          1.0000   
         C         C         1.0       0.3159570263456326  0.944540648110106   0.12497212652933062          1.0000   
         C         C         1.0       0.3435009696665153  0.9616757877376453  0.13883184050503805          1.0000   
         C         C         1.0       0.351007142172986   0.9875854319609998  0.15249829387311015          1.0000   
         H         H         1.0       0.5016865668122006  0.07894736330455365           0.5702582720531859 1.0000   
         H         H         1.0       0.48269084322094064           0.048343600265644104         0.0689352540036212 1.0000   
         H         H         1.0       0.5086699491981876  0.07183505722699857           0.023905591569381542         1.0000   
         H         H         1.0       0.5444417420695842  0.1299088679316564  0.5681450756430352 1.0000   
         H         H         1.0       0.5196272036131424  0.056699878991382624         0.1225787531682436 1.0000   
         H         H         1.0       0.5702700037581384  0.07916067898496015           0.14007272876749194          1.0000   
         H         H         1.0       0.537775114020736   0.023399918505220052         0.5432572589587206 1.0000   
         H         H         1.0       0.5099330026555436  0.9732953670405748  0.11288732320904546          1.0000   
         H         H         1.0       0.42672248531004187           0.9972508156988056 0.07833289365869561          1.0000   
         H         H         1.0       0.3928834639433126  0.004900282937298384         0.10437884451616443          1.0000   
         H         H         1.0       0.4425607702026051  0.022104380079713604         0.1820274656016154 1.0000   
         H         H         1.0       0.47377325022063504           0.009271931232845088         0.15754159041003754          1.0000   
         H         H         1.0       0.3870313484672099  0.08811850432470192           0.11696021656632337          1.0000   
         H         H         1.0       0.37715222435958995           0.0400551310886883 0.11785764008032709          1.0000   
         H         H         1.0       0.4206743414323137  0.06176850947855672           0.20123894785750082          1.0000   
         H         H         1.0       0.43053936288126515           0.10965258573779206          0.19897566165655645          1.0000   
         H         H         1.0       0.38772347829084586           0.9637252178666879 0.1799257077913286 1.0000   
         H         H         1.0       0.38141925936830134           0.942990982022408  0.22377748286832008          1.0000   
         H         H         1.0       0.36457785584352015           0.0026060332410091647        0.2621322550955647 1.0000   
         H         H         1.0       0.36643404263523904           0.02258090662700285          0.21859693323341525          1.0000   
         H         H         1.0       0.33603176418735753           0.015932598007434517         0.16045539358310865          1.0000   
         H         H         1.0       0.28843785816271794           0.9874047922935768 0.14103228291542752          1.0000   
         H         H         1.0       0.3115240724788754  0.9255489223671437  0.11332377705529992          1.0000   
         H         H         1.0       0.35908910824988355           0.953731942865973  0.1398063304447709 1.0000   
         C         C         1.0       0.41130051046637733           0.986439968855302  0.3117268266811181 1.0000   
         C         C         1.0       0.41574267241785334           0.9733249911239559 0.3350635980620615 1.0000   
         C         C         1.0       0.4442900047160854  0.9857589334462298  0.3460203358333968 1.0000   
         C         C         1.0       0.4682839619437763  0.012787108436155048         0.33673527323056807          1.0000   
         C         C         1.0       0.4639810684388404  0.02562955322011251           0.3123649468301678 1.0000   
         C         C         1.0       0.43565934448553406           0.01335134512569991          0.30074446993037085          1.0000   
         H         H         1.0       0.3979939435069874  0.9523650468370861  0.34250613169818767          1.0000   
         H         H         1.0       0.44679124206981957           0.9769949168881868 0.36468931544321204          1.0000   
         H         H         1.0       0.48220421067442526           0.04745281575743476          0.3055155462803026 1.0000   
         H         H         1.0       0.4324534993250848  0.02320960914825876           0.2821352074081546 1.0000   
         C         C         1.0       0.5364918937574802  0.04798486531421431           0.31205235020426   1.0000   
         C         C         1.0       0.5281817539143754  0.052207352196509405         0.3392107728112544 1.0000   
         C         C         1.0       0.5500133087492448  0.07578707837715504           0.3549397308405133 1.0000   
         C         C         1.0       0.5791172693700817  0.0962026801017342  0.34213811154927065          1.0000   
         C         C         1.0       0.5867813684856882  0.09187694118079959           0.3159609896651856 1.0000   
         C         C         1.0       0.5649512545304318  0.06811450433244626           0.30113083780321676          1.0000   
         C         C         1.0       0.4981112716293285  0.027009137236763126         0.3551805245092505 1.0000   
         C         C         1.0       0.508442113389054   0.00498830178626708           0.3633383908900393 1.0000   
         C         C         1.0       0.5275917920452139  0.011645197973335852         0.3861155070357802 1.0000   
         C         C         1.0       0.5349031718546191  0.9931735757148293  0.3956534892703173 1.0000   
         C         C         1.0       0.525827287059353   0.9673093254960438  0.38144629391982365          1.0000   
         C         C         1.0       0.5077607621350259  0.9601556659735052  0.3572910575301329 1.0000   
         C         C         1.0       0.5008301117008679  0.9803317435955307  0.347562527774415  1.0000   
         C         C         1.0       0.4810216883735962  0.05900014746546067           0.37979679306488556          1.0000   
         C         C         1.0       0.46442045709494073           0.06218231669320229          0.40081169983906   1.0000   
         C         C         1.0       0.4503233468837458  0.043164602212445446         0.4248816057446485 1.0000   
         C         C         1.0       0.4573174802444074  0.02203594892148386           0.42909713294279345          1.0000   
         C         C         1.0       0.47582472235192647           0.019990076197206275         0.40784017680244444          1.0000   
         C         C         1.0       0.486708426673793   0.03724511780110573           0.3824620511473615 1.0000   
         C         C         1.0       0.42318805969889967           0.04196653273483841          0.4398022444855419 1.0000   
         C         C         1.0       0.46475938327788724           0.10880171959121279          0.5063823091167545 1.0000   
         C         C         1.0       0.4611102699813523  0.11676270899856862           0.4805558290754964 1.0000   
         C         C         1.0       0.45019722148383373           0.09673479997559542          0.45859565852391543          1.0000   
         C         C         1.0       0.444676001115703   0.06878261706925182           0.4614051477449559 1.0000   
         C         C         1.0       0.4526648721673     0.06316732779552114           0.48808990034175365          1.0000   
         C         C         1.0       0.4609655024374109  0.08265386717666212           0.5105526971860438 1.0000   
         C         C         1.0       0.39769813733617404           0.015532333053701386         0.45927448467333537          1.0000   
         C         C         1.0       0.3882628328212177  0.9868198848830895  0.4566801211588299 1.0000   
         C         C         1.0       0.37081367098019086           0.9656026202091561 0.47741138413263584          1.0000   
         C         C         1.0       0.3606057700263192  0.9731660438902949  0.5002137189828489 1.0000   
         C         C         1.0       0.36411780506403524           0.0006199224945371284        0.49991958991588353          1.0000   
         C         C         1.0       0.3831723649531159  0.022149381634619214         0.4794965264964385 1.0000   
         C         C         1.0       0.38850689305445    0.05923830758957238           0.419897453328041  1.0000   
         C         C         1.0       0.3653016714035811  0.05462207785099116           0.40238497536704715          1.0000   
         C         C         1.0       0.35614385591695763           0.03332750953001207          0.38039370640805736          1.0000   
         C         C         1.0       0.36839313215411823           0.018328611785169535         0.3766400267988722 1.0000   
         C         C         1.0       0.3909163761180747  0.02204747904659321           0.3949922169453172 1.0000   
         C         C         1.0       0.40100388651731694           0.04203351459070137          0.4172337100769079 1.0000   
         H         H         1.0       0.5207242943914365  0.02714265322306808           0.30088158026677386          1.0000   
         H         H         1.0       0.5446972372081704  0.07875701609023711           0.3761432123202608 1.0000   
         H         H         1.0       0.5945873861993096  0.11444303934776229           0.35556739944531895          1.0000   
         H         H         1.0       0.5719693835199976  0.06343874252506199           0.2809872593686149 1.0000   
         H         H         1.0       0.5365900450518698  0.03214797665933422           0.39815379649967036          1.0000   
         H         H         1.0       0.5480154407613939  0.9977201371810879  0.41440848807859304          1.0000   
         H         H         1.0       0.5006539706335976  0.9407026387810796  0.3462659103695408 1.0000   
         H         H         1.0       0.4890101947393643  0.976068165246936   0.32908470770504294          1.0000   
         H         H         1.0       0.4914799196542688  0.0740603030890552  0.3617627935213715 1.0000   
         H         H         1.0       0.45947316423794904           0.07892796213386033          0.39848078980260204          1.0000   
         H         H         1.0       0.4457042245484991  0.006068710059154103         0.4458111569738576 1.0000   
         H         H         1.0       0.4778208923960706  0.0011263499511755537        0.4103617336502857 1.0000   
         H         H         1.0       0.4641719126806649  0.13760201927359034           0.47462648850420985          1.0000   
         H         H         1.0       0.4465361726536933  0.10384148638695456           0.43921037763385745          1.0000   
         H         H         1.0       0.4482321197112359  0.041017492608188766         0.49301785028368983          1.0000   
         H         H         1.0       0.461863141706067   0.07560735961914578           0.5316325020743866 1.0000   
         H         H         1.0       0.3997046829554576  0.98246031169816    0.43959161990319146          1.0000   
         H         H         1.0       0.36619522210223115           0.9437028333163566 0.4757436707526989 1.0000   
         H         H         1.0       0.35763166487058706           0.0054944559675309534        0.5196022091175951 1.0000   
         H         H         1.0       0.3873762795509828  0.04390458916804407           0.48116576990771937          1.0000   
         H         H         1.0       0.3960397474477694  0.07561676512919524           0.4363005669955432 1.0000   
         H         H         1.0       0.35828868103504324           0.0704540062857002 0.40280742690403054          1.0000   
         H         H         1.0       0.3614055021173032  0.004291357914322447         0.35911946373301057          1.0000   
         H         H         1.0       0.4014844197365054  0.01047104097388396           0.3899875252494964 1.0000   
         C         C         1.0       0.9143604140512631  0.7543832171267542  0.2673219577980295 1.0000   
         C         C         1.0       0.8871373741648783  0.7280080830995708  0.2747762594383988 1.0000   
         C         C         1.0       0.8603511592102461  0.7202659332201078  0.2616122264031108 1.0000   
         C         C         1.0       0.8597579371816537  0.740675770248697   0.24379532785429742          1.0000   
         C         C         1.0       0.8872234132560529  0.7660225552257932  0.23694865624181444          1.0000   
         C         C         1.0       0.9131767706360717  0.7734677054022531  0.24877450943356913          1.0000   
         H         H         1.0       0.8860512514725103  0.7116804677873362  0.288191618667785  1.0000   
         H         H         1.0       0.8392567657268394  0.6985465791415741  0.2671135962637814 1.0000   
         H         H         1.0       0.8870463814109356  0.780655872368606   0.2209302186573501 1.0000   
         H         H         1.0       0.9340593645047127  0.7944506445565598  0.24405962438323306          1.0000   
         C         C         1.0       0.8350560652928986  0.7798120010573495  0.25419638141168394          1.0000   
         C         C         1.0       0.8294115627583252  0.7643711446260831  0.2281465302109322 1.0000   
         C         C         1.0       0.8200622639477245  0.7718026558829714  0.20477794268210747          1.0000   
         C         C         1.0       0.8139059640802484  0.7930974672910965  0.20814522066541405          1.0000   
         C         C         1.0       0.816342954326494   0.8062013848454892  0.2340979115098467 1.0000   
         C         C         1.0       0.8291681781789293  0.8017913936945832  0.2566755826793263 1.0000   
         C         C         1.0       0.8296378523037569  0.7349577511339787  0.23213033802136107          1.0000   
         C         C         1.0       0.7965772479096062  0.71484028382556    0.24811045823179464          1.0000   
         C         C         1.0       0.7704948918894272  0.7034349046428859  0.2320657465589148 1.0000   
         C         C         1.0       0.7430281116178781  0.6846894552483462  0.24447364082790043          1.0000   
         C         C         1.0       0.7401065748722243  0.6779419303195657  0.2738661816458111 1.0000   
         C         C         1.0       0.7650828914612088  0.6940378046688063  0.2915332726650318 1.0000   
         C         C         1.0       0.7935311067709624  0.7122051321404798  0.2776566590313847 1.0000   
         C         C         1.0       0.8395406627858316  0.7306648326806805  0.17725435000052406          1.0000   
         C         C         1.0       0.833871407645159   0.7163737826199448  0.15228365436314575          1.0000   
         C         C         1.0       0.8129484406738378  0.6843245855971888  0.15223838928465888          1.0000   
         C         C         1.0       0.80574680114258    0.6703449927941083  0.1785321559780163 1.0000   
         C         C         1.0       0.8123525315270542  0.685566541779551   0.2030648053389774 1.0000   
         C         C         1.0       0.8281634350257422  0.7165045347932112  0.20258607662198508          1.0000   
         C         C         1.0       0.7946713929471424  0.6692838183919213  0.12436233007928849          1.0000   
         C         C         1.0       0.7290737467412269  0.6949738492730274  0.1344345249177749 1.0000   
         C         C         1.0       0.7538365714398999  0.7113983931004974  0.11732566743642485          1.0000   
         C         C         1.0       0.7743163470549622  0.7021766285371882  0.11092464216653049          1.0000   
         C         C         1.0       0.7698141262205048  0.6772550945293155  0.12468450764791679          1.0000   
         C         C         1.0       0.7453223591388575  0.6629249771956378  0.14377650966694447          1.0000   
         C         C         1.0       0.7242618973662026  0.6702085860323403  0.14774129586184367          1.0000   
         C         C         1.0       0.7801783311624954  0.6344437346736427  0.12319829937550825          1.0000   
         C         C         1.0       0.7982590384872005  0.6248941021336188  0.13061468233166132          1.0000   
         C         C         1.0       0.7905183387703412  0.597200287737346   0.12467227404162325          1.0000   
         C         C         1.0       0.7625515793450992  0.576889350165255   0.11268485748982841          1.0000   
         C         C         1.0       0.7436827421844299  0.5860479789345929  0.10717930906966623          1.0000   
         C         C         1.0       0.7514591532059048  0.6133520478374264  0.11132045213266256          1.0000   
         C         C         1.0       0.804684107158081   0.6740141097696257  0.06854540731960652          1.0000   
         C         C         1.0       0.822452541788329   0.6805021234042292  0.04422034944974596          1.0000   
         C         C         1.0       0.8534485948056414  0.6930222872237902  0.04847841942983333          1.0000   
         C         C         1.0       0.8646251522159834  0.6958347467481816  0.07592067265921833          1.0000   
         C         C         1.0       0.844822327959296   0.6848449544712656  0.09827820453337344          1.0000   
         C         C         1.0       0.8150291627372477  0.6774350505312576  0.09637944771270343          1.0000   
         H         H         1.0       0.8436059193407254  0.7747049276830376  0.27160970745719293          1.0000   
         H         H         1.0       0.8155358552362183  0.7593106846938175  0.18508478401663558          1.0000   
         H         H         1.0       0.8003354312403228  0.796581439112999   0.1937550344906298 1.0000   
         H         H         1.0       0.8322881252316872  0.8140287445738872  0.2772555112434503 1.0000   
         H         H         1.0       0.7707269452385794  0.7080763735566991  0.20894832601123275          1.0000   
         H         H         1.0       0.7226907116503564  0.6713315993077567  0.23195413833028633          1.0000   
         H         H         1.0       0.7639615901006015  0.6939038905830701  0.3144156641467559 1.0000   
         H         H         1.0       0.8129942235140089  0.7253024152092726  0.2906755534864074 1.0000   
         H         H         1.0       0.8541133355355816  0.7545077481124254  0.17677251358187746          1.0000   
         H         H         1.0       0.8400999426577236  0.7284620606476221  0.1322635854459892 1.0000   
         H         H         1.0       0.7871130742021487  0.6471027941850243  0.1817629903504479 1.0000   
         H         H         1.0       0.8033415782417994  0.6740722441733835  0.22353208244085135          1.0000   
         H         H         1.0       0.7592408739974377  0.7333444772777253  0.10952701211750557          1.0000   
         H         H         1.0       0.7949020725468753  0.7188453442546046  0.10048370463514253          1.0000   
         H         H         1.0       0.7456412615939173  0.6471500424903547  0.1579933931482764 1.0000   
         H         H         1.0       0.7086263000510848  0.6583389143981434  0.16398726846551614          1.0000   
         H         H         1.0       0.8178728104999228  0.6384010466349483  0.14309016460559734          1.0000   
         H         H         1.0       0.8064585065966975  0.5916016773986955  0.13256098107725958          1.0000   
         H         H         1.0       0.7225493485889642  0.5689072683355099  0.09699268827046575          1.0000   
         H         H         1.0       0.7372948456914925  0.6210761659335586  0.10378836457240287          1.0000   
         H         H         1.0       0.781026653170978   0.6669254933778616  0.06696720278636177          1.0000   
         H         H         1.0       0.8114113650707608  0.6769747768758536  0.0232510141850637 1.0000   
         H         H         1.0       0.8895023095286057  0.7042183048605013  0.0796714329839465 1.0000   
         H         H         1.0       0.8555538071570291  0.6862689513167681  0.11938737275007763          1.0000   
         C         C         1.0       0.895262000464648   0.7259325810219854  0.5713975316986153 1.0000   
         C         C         1.0       0.8843589760051228  0.7053998513330664  0.5496354902659499 1.0000   
         C         C         1.0       0.8649607592067557  0.7051634859298446  0.5291711138870001 1.0000   
         C         C         1.0       0.8585719201334983  0.7263248904277346  0.5283566561960141 1.0000   
         C         C         1.0       0.8703232341295466  0.7467229279964109  0.5506910712778986 1.0000   
         C         C         1.0       0.8868565211177367  0.7460195382302887  0.5727034363724598 1.0000   
         H         H         1.0       0.891587609686846   0.6904467526031393  0.5475823033076682 1.0000   
         H         H         1.0       0.859182614858559   0.6914619353065936  0.5113436272514972 1.0000   
         H         H         1.0       0.867757342218155   0.7656790479986102  0.5523400555641371 1.0000   
         H         H         1.0       0.8962990512453326  0.7635230382950849  0.5886246978811798 1.0000   
         C         C         1.0       0.8044651656237564  0.7372579644839239  0.53964313260636   1.0000   
         C         C         1.0       0.8174680478074816  0.7400548413726314  0.513234923909483  1.0000   
         C         C         1.0       0.8084122026440937  0.7510065786342707  0.49266616410724484          1.0000   
         C         C         1.0       0.7874760648946365  0.7583040334846627  0.4975248264421492 1.0000   
         C         C         1.0       0.7759037673309035  0.7554794154807428  0.5248774137973145 1.0000   
         C         C         1.0       0.7837099374130322  0.7447920021114691  0.5461974998357495 1.0000   
         C         C         1.0       0.8383476317173998  0.7273842077121591  0.5028817772114577 1.0000   
         C         C         1.0       0.8103368501788158  0.6946082089884955  0.49158221763112553          1.0000   
         C         C         1.0       0.7998490359727672  0.6916169752524132  0.4624357387524473 1.0000   
         C         C         1.0       0.7717270497819474  0.6670084591208002  0.4551633481712449 1.0000   
         C         C         1.0       0.7537847083840198  0.6447615653521359  0.4748336429820234 1.0000   
         C         C         1.0       0.7633326430968081  0.6480329370311366  0.5020111338008146 1.0000   
         C         C         1.0       0.7900649820036476  0.6723794622964948  0.5110324245071246 1.0000   
         C         C         1.0       0.8791347271880239  0.777873825216721   0.48185097312831227          1.0000   
         C         C         1.0       0.894139295764122   0.7961975610304546  0.45836178844208714          1.0000   
         C         C         1.0       0.8941253621449207  0.7845741432828487  0.43163952288100077          1.0000   
         C         C         1.0       0.884558739240683   0.7553062365907356  0.43223455827360974          1.0000   
         C         C         1.0       0.8696885280247477  0.7365522514582175  0.45547613040215323          1.0000   
         C         C         1.0       0.8650821436818315  0.7474197120701181  0.4802814931547914 1.0000   
         C         C         1.0       0.9044960636299363  0.8055342264043248  0.4041123296988739 1.0000   
         C         C         1.0       0.8238668837314134  0.8085100198133257  0.3916120992094051 1.0000   
         C         C         1.0       0.8491209769057059  0.8318596686026211  0.405256604694288  1.0000   
         C         C         1.0       0.8740642702733749  0.8313083749182821  0.409624481385975  1.0000   
         C         C         1.0       0.8752715079089722  0.8070798736140467  0.40079279636146514          1.0000   
         C         C         1.0       0.8499043253391223  0.7838192084396566  0.3876252213796119 1.0000   
         C         C         1.0       0.8245259693690098  0.7846006169618774  0.3833893995706452 1.0000   
         C         C         1.0       0.911560765861433   0.7926092473207453  0.3769713117014468 1.0000   
         C         C         1.0       0.9291010815184151  0.7808930697991799  0.3781397291686447 1.0000   
         C         C         1.0       0.9422466407995694  0.7773628478231879  0.3530092363754714 1.0000   
         C         C         1.0       0.9404068048016797  0.7879691644563328  0.3272930152193575 1.0000   
         C         C         1.0       0.9216940944317474  0.7981433244629603  0.3258168112483364 1.0000   
         C         C         1.0       0.9070558380337604  0.7992625606498253  0.3492141134885205 1.0000   
         C         C         1.0       0.940777114657052   0.8598569526489785  0.38658151892827475          1.0000   
         C         C         1.0       0.9698691681686937  0.8841752456288896  0.38239195768269874          1.0000   
         C         C         1.0       0.9926555060739949  0.8849332019618134  0.39782269303088813          1.0000   
         C         C         1.0       0.9871709363165495  0.8645207492704469  0.41781982747868374          1.0000   
         C         C         1.0       0.9584866448684454  0.8396736258256481  0.4200204979449535 1.0000   
         C         C         1.0       0.9345008132272135  0.8379916496483606  0.4067658103028318 1.0000   
         H         H         1.0       0.8103994789042134  0.7265335090812254  0.555522266060715  1.0000   
         H         H         1.0       0.8145976372498351  0.7509198651631396  0.4705599101330082 1.0000   
         H         H         1.0       0.781707218435716   0.7665184021059968  0.4793545996299314 1.0000   
         H         H         1.0       0.7731055154132738  0.7412059706315831  0.5668482458230661 1.0000   
         H         H         1.0       0.8092361414261251  0.708121960764403   0.4472951057516069 1.0000   
         H         H         1.0       0.76111771488021    0.6650035342360516  0.4348292296599054 1.0000   
         H         H         1.0       0.7473934769902824  0.6322803507920965  0.5188742491666027 1.0000   
         H         H         1.0       0.7963060175402861  0.6757452436838338  0.5339218206782893 1.0000   
         H         H         1.0       0.8767533958445279  0.7875263619827609  0.5025962760026293 1.0000   
         H         H         1.0       0.9010454638414279  0.819075548588568   0.4611022214615576 1.0000   
         H         H         1.0       0.8840723628154945  0.7436594690132522  0.4132510242185681 1.0000   
         H         H         1.0       0.8586813859530769  0.7132590816170422  0.45313988196071675          1.0000   
         H         H         1.0       0.8491347510708492  0.852034149947762   0.40878872514611125          1.0000   
         H         H         1.0       0.8926908546895509  0.8502597522509048  0.42102710026492446          1.0000   
         H         H         1.0       0.8453910794572931  0.7622781017138592  0.38353560226643385          1.0000   
         H         H         1.0       0.8065392055078918  0.7669815615654931  0.3705073571257506 1.0000   
         H         H         1.0       0.9374842993626827  0.7807203096605195  0.400543855690842  1.0000   
         H         H         1.0       0.9559612786229763  0.7678765371485567  0.3545035384983685 1.0000   
         H         H         1.0       0.9214043039941097  0.8074456883044004  0.30616464779095903          1.0000   
         H         H         1.0       0.8950700461108104  0.8094098611205816  0.345219785044614  1.0000   
         H         H         1.0       0.9230341778195984  0.8573047834144826  0.3711303838694655 1.0000   
         H         H         1.0       0.975240826463621   0.8998304154644381  0.3647816891905878 1.0000   
         H         H         1.0       0.006186075987870687          0.866964048104806  0.42993305408434146          1.0000   
         H         H         1.0       0.9532199148024727  0.8220166124685917  0.43436534150689304          1.0000   
         C         C         1.0       0.6929635653793222  0.5031502743907144  0.16401591005083085          1.0000   
         C         C         1.0       0.6878175533937914  0.5069414213547891  0.19266281816627753          1.0000   
         C         C         1.0       0.6738256770225959  0.522086207022618   0.19886295948127902          1.0000   
         C         C         1.0       0.6683960918197407  0.5360895085351802  0.177617096488924  1.0000   
         C         C         1.0       0.6766298798142644  0.5349437080219679  0.1496331604409504 1.0000   
         C         C         1.0       0.6889765178933895  0.5190691783170857  0.14384436649777457          1.0000   
         H         H         1.0       0.6877756692127854  0.49014418119130987           0.2064856492483701 1.0000   
         H         H         1.0       0.6658631031834894  0.5195904934780866  0.22112817716117295          1.0000   
         H         H         1.0       0.66958283173053    0.5395480484918885  0.13002493336639945          1.0000   
         H         H         1.0       0.6880084738478017  0.5152251818493386  0.12033503517670376          1.0000   
         C         C         1.0       0.6734753111160272  0.5902474966979134  0.1423988231673421 1.0000   
         C         C         1.0       0.6470649670055924  0.5688687953357914  0.15655561676818208          1.0000   
         C         C         1.0       0.6206123548288549  0.5654073031616749  0.1482645993441973 1.0000   
         C         C         1.0       0.6199270602932325  0.5804826837202519  0.12472756732068828          1.0000   
         C         C         1.0       0.6454933503229948  0.5997558087897269  0.10958735759922085          1.0000   
         C         C         1.0       0.6730093495854367  0.6039253875088778  0.11678018261288446          1.0000   
         C         C         1.0       0.6489837522310679  0.5507408234367333  0.18314882422361542          1.0000   
         C         C         1.0       0.6625524300851937  0.5743339559951259  0.20855283478539308          1.0000   
         C         C         1.0       0.6456555000472115  0.583359428044662   0.22383168686307311          1.0000   
         C         C         1.0       0.6573248625190639  0.6010958075097254  0.2476158045825748 1.0000   
         C         C         1.0       0.6876353447828322  0.6115833954627742  0.2549565109300186 1.0000   
         C         C         1.0       0.706015484789202   0.6067763567447867  0.23856740686203343          1.0000   
         C         C         1.0       0.6937843389980992  0.5885622015112171  0.2143378285783939 1.0000   
         C         C         1.0       0.6039696031061736  0.5010266242496222  0.1672611698868824 1.0000   
         C         C         1.0       0.5846427804386459  0.4733118563721125  0.1721918641610389 1.0000   
         C         C         1.0       0.5732518317365934  0.4638692015549622  0.19887681811526395          1.0000   
         C         C         1.0       0.5806750090430064  0.48365354627432094           0.22143762998862418          1.0000   
         C         C         1.0       0.6041758372180848  0.5111684696887494  0.21670258230822417          1.0000   
         C         C         1.0       0.6174459838145094  0.5215732501452331  0.19024449417885972          1.0000   
         C         C         1.0       0.5524699837208651  0.43050231375773396           0.20616363061143067          1.0000   
         C         C         1.0       0.4736267630644314  0.4243398074520415  0.1687821300450633 1.0000   
         C         C         1.0       0.4903844130241864  0.4169754757701438  0.15183183967779249          1.0000   
         C         C         1.0       0.5145196281889749  0.41784009056501537           0.16356012522818977          1.0000   
         C         C         1.0       0.5209069367520727  0.42281736651439417           0.1931525136960604 1.0000   
         C         C         1.0       0.5035819171130392  0.4295714922715268  0.21064943790427634          1.0000   
         C         C         1.0       0.4802731392813481  0.43032004817215314           0.1977965992924945 1.0000   
         C         C         1.0       0.5499916280229656  0.41944706658680575           0.2390209876995247 1.0000   
         C         C         1.0       0.5749899186840292  0.43174698960443203           0.25687553721567047          1.0000   
         C         C         1.0       0.5754117665266539  0.4183109036553678  0.28248153815322   1.0000   
         C         C         1.0       0.549483208354776   0.3947363476386254  0.2932972744894907 1.0000   
         C         C         1.0       0.5229605840559599  0.381976636715444   0.27710882821554894          1.0000   
         C         C         1.0       0.5236089308990379  0.39470679148276844           0.25048966634279934          1.0000   
         C         C         1.0       0.547625335594099   0.38308955682128554           0.1849479516285773 1.0000   
         C         C         1.0       0.5580730706676884  0.36562764346710525           0.17839858222274335          1.0000   
         C         C         1.0       0.5892267701065574  0.3782208600728715  0.17712171747364402          1.0000   
         C         C         1.0       0.6076021916062299  0.4065342825286303  0.18598358089435885          1.0000   
         C         C         1.0       0.5972689488394455  0.42457197643182715           0.19203992161929526          1.0000   
         C         C         1.0       0.566163823985391   0.41216268627252156           0.19180347796234945          1.0000   
         H         H         1.0       0.6955416678517247  0.5991083438217671  0.15259673544633992          1.0000   
         H         H         1.0       0.5997161544948761  0.550859894359746   0.1600067355266435 1.0000   
         H         H         1.0       0.598148933212883   0.5740279765890449  0.11816623366378287          1.0000   
         H         H         1.0       0.6929906998702118  0.6206839390277954  0.10650866758282475          1.0000   
         H         H         1.0       0.6224032517713622  0.5724422829242487  0.21730599096285058          1.0000   
         H         H         1.0       0.6417013672915536  0.6049240411052142  0.2594848721076423 1.0000   
         H         H         1.0       0.7289406440517823  0.6156750325846645  0.24605081632306966          1.0000   
         H         H         1.0       0.7093286278615019  0.5847917921084954  0.20353248447785277          1.0000   
         H         H         1.0       0.612203285935642   0.5060266653076644  0.1445527945216642 1.0000   
         H         H         1.0       0.5791093960748296  0.4581102151436005  0.15461901380608778          1.0000   
         H         H         1.0       0.5698074103623039  0.4772638916775122  0.24287622876323683          1.0000   
         H         H         1.0       0.6114076938365042  0.5243537003498742  0.234970643625852  1.0000   
         H         H         1.0       0.48754997051091    0.4115172224347331  0.12991256873790974          1.0000   
         H         H         1.0       0.5274797334917546  0.4131973256063085  0.14916145014380436          1.0000   
         H         H         1.0       0.5106956366327311  0.435138770931749   0.23287832697394703          1.0000   
         H         H         1.0       0.4659099556971172  0.43271845384055424           0.21362025460994918          1.0000   
         H         H         1.0       0.5935132909481965  0.45246613742398767           0.24994698816151661          1.0000   
         H         H         1.0       0.5965840906697859  0.4282220341103013  0.29607518276402667          1.0000   
         H         H         1.0       0.5026812302553733  0.36230381320742866           0.2841406017235968 1.0000   
         H         H         1.0       0.5019976076536732  0.38331112651678456           0.2397572176083655 1.0000   
         H         H         1.0       0.5241626599791716  0.3732324827749326  0.1907953017246936 1.0000   
         H         H         1.0       0.5424017911870738  0.34145795514015626           0.17904987927531596          1.0000   
         H         H         1.0       0.6317587474803227  0.4148953558653149  0.1897341726932963 1.0000   
         H         H         1.0       0.6119473639729534  0.445116962204369   0.20166051300638524          1.0000   
         C         C         1.0       0.584032443416794   0.4246159273454697  0.3560690581554746 1.0000   
         C         C         1.0       0.6103697532592353  0.44039312302467265           0.370715537949824  1.0000   
         C         C         1.0       0.6169983958044775  0.46489163749755835           0.3868500771323106 1.0000   
         C         C         1.0       0.5977915649477958  0.47431925503443173           0.38845880726274434          1.0000   
         C         C         1.0       0.5713503909748672  0.45888269610919563           0.37258841637601076          1.0000   
         C         C         1.0       0.5647679273228219  0.4345232051805858  0.3560473277645992 1.0000   
         H         H         1.0       0.6209751242022592  0.42893348920009916           0.37685905893851596          1.0000   
         H         H         1.0       0.633345856975813   0.4710752951226738  0.40306657620806047          1.0000   
         H         H         1.0       0.5550857794312254  0.4658420249849862  0.373970545918862  1.0000   
         H         H         1.0       0.5411540245603224  0.42061035614358533           0.34800233361833316          1.0000   
         C         C         1.0       0.593349856774569   0.5297797762877274  0.38065636382568013          1.0000   
         C         C         1.0       0.5897490687470578  0.516866963564298   0.40780198767688813          1.0000   
         C         C         1.0       0.5807315696937481  0.5273638821614361  0.4300090761749361 1.0000   
         C         C         1.0       0.5692435767348165  0.5439975473262878  0.42554707049485263          1.0000   
         C         C         1.0       0.5683543887566986  0.55270790391668    0.39841425331944985          1.0000   
         C         C         1.0       0.5804634832193506  0.5455629937442069  0.3751559841718016 1.0000   
         C         C         1.0       0.6022294351868079  0.49671315173530395           0.4146132893776464 1.0000   
         C         C         1.0       0.6366638386271736  0.5220874669205811  0.4235013477095072 1.0000   
         C         C         1.0       0.6419893208528686  0.5323494138634631  0.452302122657459  1.0000   
         C         C         1.0       0.6696060552199999  0.555124764589829   0.46096611979169927          1.0000   
         C         C         1.0       0.6934337267647712  0.5695077582482322  0.4414493070964224 1.0000   
         C         C         1.0       0.6902671700128509  0.5589790986286347  0.41343881049789416          1.0000   
         C         C         1.0       0.6605137370017904  0.5353346043058457  0.4043959711680542 1.0000   
         C         C         1.0       0.5519133778877651  0.45762641113785835           0.44274798228968004          1.0000   
         C         C         1.0       0.5379322929799081  0.4399625292904245  0.4655237178417308 1.0000   
         C         C         1.0       0.5539586145143313  0.43477312898544723           0.4857316755020088 1.0000   
         C         C         1.0       0.58295777124261    0.44530163475348566           0.47851124884581364          1.0000   
         C         C         1.0       0.5979047545373457  0.46299450257438496           0.45542546078848317          1.0000   
         C         C         1.0       0.5834820071198994  0.4723795360139102  0.4389565792437883 1.0000   
         C         C         1.0       0.5432125826604152  0.4258432871640072  0.5176501450610055 1.0000   
         C         C         1.0       0.5370562976518121  0.5036077379741282  0.5302975710329433 1.0000   
         C         C         1.0       0.5103901210223025  0.4758319816719403  0.5323585953479547 1.0000   
         C         C         1.0       0.5136744462517249  0.45275500415853626           0.5318621317066587 1.0000   
         C         C         1.0       0.540352559457107   0.4531781261225429  0.5281305283833423 1.0000   
         C         C         1.0       0.5665780132762931  0.48097788557032267           0.5293214006634307 1.0000   
         C         C         1.0       0.5647176173581635  0.5059760698932483  0.5312025413297764 1.0000   
         C         C         1.0       0.6075077492581472  0.4202275423192585  0.08514976443727904          1.0000   
         C         C         1.0       0.6309559125114553  0.41686078614975647           0.07544338862072875          1.0000   
         C         C         1.0       0.658785807527659   0.4311386325780227  0.08833867494363387          1.0000   
         C         C         1.0       0.6626300677807337  0.4472625514351428  0.11314124946682762          1.0000   
         C         C         1.0       0.638437793035388   0.44918750141239583           0.12318513924998373          1.0000   
         C         C         1.0       0.6116106823550344  0.43525885926243146           0.11086811460957656          1.0000   
         C         C         1.0       0.537289167668191   0.3706790903875009  0.10701886709550365          1.0000   
         C         C         1.0       0.5189203423055156  0.34226711909581936           0.11869503388978585          1.0000   
         C         C         1.0       0.521079390356285   0.31968296723764933           0.11074476902210098          1.0000   
         C         C         1.0       0.4636663592704714  0.35540191489275896           0.5068503796650056 1.0000   
         C         C         1.0       0.4921280911413535  0.37918063390584766           0.5010517071747266 1.0000   
         C         C         1.0       0.511087835004594   0.3965235826084844  0.5221770623520915 1.0000   
         H         H         1.0       0.6039643991406431  0.5229761796086969  0.36587177850397884          1.0000   
         H         H         1.0       0.5810203934038666  0.5197904768573656  0.45163848856580785          1.0000   
         H         H         1.0       0.558796765624392   0.5495431583861876  0.44271901169078837          1.0000   
         H         H         1.0       0.5827069091514399  0.553645619842853   0.35311047265298123          1.0000   
         H         H         1.0       0.622062109332481   0.5214403945381112  0.4658649834970398 1.0000   
         H         H         1.0       0.674228825244724   0.561110767707074   0.4830078930350003 1.0000   
         H         H         1.0       0.7086320245704774  0.566916458693302   0.39866856452481736          1.0000   
         H         H         1.0       0.6568346554701598  0.5243405680446571  0.38300395179439356          1.0000   
         H         H         1.0       0.5389984866200509  0.4629390986375622  0.4282117187507461 1.0000   
         H         H         1.0       0.5149307524002604  0.4338402146318736  0.4696484932074292 1.0000   
         H         H         1.0       0.5987061795069214  0.4442081382306236  0.4918191614644008 1.0000   
         H         H         1.0       0.6225125791804998  0.47247884288070086           0.45329081562245194          1.0000   
         H         H         1.0       0.4872840089623812  0.46892801833894954           0.5372096398927299 1.0000   
         H         H         1.0       0.49239629859693507           0.43185211212242447          0.5287304980516961 1.0000   
         H         H         1.0       0.5877004359058995  0.48275329081775226           0.5233506885811022 1.0000   
         H         H         1.0       0.5834629512456028  0.526712942299609   0.5275008139532064 1.0000   
         H         H         1.0       0.5492226401720776  0.38103126075632465           0.5092918478589471 1.0000   
         H         H         1.0       0.6754192081681355  0.42825893535666903           0.07940553720278146          1.0000   
         H         H         1.0       0.6410051303649591  0.46238083273310737           0.14165037418080267          1.0000   
         H         H         1.0       0.5929283384380846  0.4360355278996686  0.1210324252055305 1.0000   
         H         H         1.0       0.5338880754277996  0.3883011793351997  0.1145276845178321 1.0000   
         H         H         1.0       0.5039012502806021  0.33866584247560866           0.13705754024597694          1.0000   
         H         H         1.0       0.4493482080363645  0.34525115737821827           0.48792258255992527          1.0000   
         H         H         1.0       0.49835805020107954           0.38525240614989587          0.4791746443692549 1.0000   
         C         C         1.0       0.39502720509491585           0.5837893160579473 0.36734098960856865          1.0000   
         C         C         1.0       0.42129139434539103           0.6106584906069259 0.3664920178343646 1.0000   
         C         C         1.0       0.4452150103850485  0.6141575004105686  0.3499401360657914 1.0000   
         C         C         1.0       0.443296965378813   0.5933911775826154  0.3319709341460314 1.0000   
         C         C         1.0       0.41440446223360794           0.5663487975101641 0.33148958415454316          1.0000   
         C         C         1.0       0.3914208824055418  0.562636900510665   0.3486748546858688 1.0000   
         H         H         1.0       0.4270712098932821  0.6285380585741968  0.38108485455133567          1.0000   
         H         H         1.0       0.46681374723834107           0.6353681711786128 0.35003040087847054          1.0000   
         H         H         1.0       0.41011184554880853           0.5462660025475906 0.31984192712075155          1.0000   
         H         H         1.0       0.37097509481836477           0.540211108344869  0.3507175654585773 1.0000   
         C         C         1.0       0.49631834515166073           0.5952011730659169 0.36112775007406334          1.0000   
         C         C         1.0       0.48010898772683397           0.5799637346039258 0.33538156879620834          1.0000   
         C         C         1.0       0.4702561959858023  0.5504222367431513  0.3325622048756057 1.0000   
         C         C         1.0       0.48295239509201143           0.5397862948450942 0.35071995715621457          1.0000   
         C         C         1.0       0.501604247490533   0.5562621072161171  0.37248344772617376          1.0000   
         C         C         1.0       0.5078729925442776  0.5837443528526888  0.3781303021200084 1.0000   
         C         C         1.0       0.471543705905927   0.5970379507506558  0.31438944488000026          1.0000   
         C         C         1.0       0.49882809441584547           0.6297181025490649 0.3066156478402209 1.0000   
         C         C         1.0       0.49186223455920197           0.6496489946172379 0.2971613492354544 1.0000   
         C         C         1.0       0.515326561506388   0.6787699921053144  0.2931140549104408 1.0000   
         C         C         1.0       0.5448530397291408  0.6870980626384794  0.2971242081692108 1.0000   
         C         C         1.0       0.5514276675736534  0.6662948525535141  0.30522633806470967          1.0000   
         C         C         1.0       0.5289272222620626  0.6382233408592524  0.3078996213026177 1.0000   
         C         C         1.0       0.477743834380569   0.572755108655185   0.2695353658696189 1.0000   
         C         C         1.0       0.47075392471906147           0.5612086604140275 0.24254987913228596          1.0000   
         C         C         1.0       0.44519057582427524           0.5565598896896498 0.22856621533488197          1.0000   
         C         C         1.0       0.4301144333759384  0.5681508131397923  0.24053404269169174          1.0000   
         C         C         1.0       0.4382464706875588  0.5813405694318927  0.2670279906723605 1.0000   
         C         C         1.0       0.4616081873155565  0.582545695329      0.2823508773715642 1.0000   
         C         C         1.0       0.43313832177347306           0.5386513337061679 0.20057829448430256          1.0000   
         C         C         1.0       0.4575390158660229  0.4807319060412685  0.16112270333991868          1.0000   
         C         C         1.0       0.4645329270590528  0.4878750770662418  0.18981755445865892          1.0000   
         C         C         1.0       0.4552320078555038  0.5043519800292369  0.20352914268105832          1.0000   
         C         C         1.0       0.4422715624405388  0.5178047539493208  0.18844510471597734          1.0000   
         C         C         1.0       0.4353758431906489  0.509833355307137   0.1610952317997556 1.0000   
         C         C         1.0       0.4396817005558763  0.48933136508774566           0.14800458108325873          1.0000   
         C         C         1.0       0.4429437955398405  0.566173004840579   0.17806375314472925          1.0000   
         C         C         1.0       0.42454355648252784           0.5765018311105601 0.17043833440491996          1.0000   
         C         C         1.0       0.43800515727034167           0.6037309518741266 0.15889958773882276          1.0000   
         C         C         1.0       0.4694059068755773  0.6233475343674385  0.15660456244666993          1.0000   
         C         C         1.0       0.48554541407778523           0.6094239154663589 0.15826790254585169          1.0000   
         C         C         1.0       0.4736829897009052  0.5828449856805413  0.1715484349333233 1.0000   
         C         C         1.0       0.37213280052767567           0.5065549212892918 0.19443237296837665          1.0000   
         C         C         1.0       0.3436087222031781  0.48651569158392827           0.2047832430107926 1.0000   
         C         C         1.0       0.3391858849509653  0.4704375644055764  0.22959966169208523          1.0000   
         C         C         1.0       0.3637833936175156  0.47551617371944727           0.24496170816301913          1.0000   
         C         C         1.0       0.39257602755091947           0.49567985594505565          0.2347942451776666 1.0000   
         C         C         1.0       0.3982755380390013  0.5132430988864812  0.21018420155901962          1.0000   
         H         H         1.0       0.5043847521514231  0.6187075352499248  0.3634233356598878 1.0000   
         H         H         1.0       0.45382149927001475           0.5381227732523567 0.315742675740247  1.0000   
         H         H         1.0       0.47658963622663325           0.5172239733020173 0.3473222183558312 1.0000   
         H         H         1.0       0.5211877206999852  0.5978018110800506  0.3959257004195368 1.0000   
         H         H         1.0       0.46984158778589163           0.647876360014687  0.2966010666034379 1.0000   
         H         H         1.0       0.510187289712456   0.6958006954309435  0.29177822655005425          1.0000   
         H         H         1.0       0.5756893872171687  0.673244856904277   0.3038818289820665 1.0000   
         H         H         1.0       0.5361483423451794  0.6242794264195626  0.3155104148483639 1.0000   
         H         H         1.0       0.49870305007382754           0.5785167436996403 0.2798039453453334 1.0000   
         H         H         1.0       0.4849547479366698  0.5555850852463697  0.23115597571247093          1.0000   
         H         H         1.0       0.41200734970511127           0.5683327110620533 0.23047332483765168          1.0000   
         H         H         1.0       0.4273902112421281  0.5905222436439058  0.27575312401065966          1.0000   
         H         H         1.0       0.47459068280323496           0.47842109782466435          0.20169610183699946          1.0000   
         H         H         1.0       0.4579088964122903  0.5069390320561067  0.22686381968298355          1.0000   
         H         H         1.0       0.42709529432699167           0.5206802209168162 0.1475517646969517 1.0000   
         H         H         1.0       0.43293569896288786           0.4821897905901298 0.12684607223176916          1.0000   
         H         H         1.0       0.4007873380828132  0.5642723614009163  0.1774706527427119 1.0000   
         H         H         1.0       0.42441107190067373           0.612945069691307  0.15395795486519723          1.0000   
         H         H         1.0       0.5098510576273733  0.6243589821403212  0.15689618475973027          1.0000   
         H         H         1.0       0.48919460962777894           0.5777464241834023 0.17940172925720038          1.0000   
         H         H         1.0       0.37439571846871095           0.517834644930676  0.17427953997939966          1.0000   
         H         H         1.0       0.3219452647999963  0.48101868241155793           0.19612686369112892          1.0000   
         H         H         1.0       0.35833491084222713           0.46043524455709745          0.26289367301114924          1.0000   
         H         H         1.0       0.41184980154760537           0.4981665974601295 0.2465359391204986 1.0000   
         C         C         1.0       0.5284088038167323  0.6749918711962036  0.11911557713636012          1.0000   
         C         C         1.0       0.5154531477393123  0.6744255675345842  0.09403328727901793          1.0000   
         C         C         1.0       0.5208316130732059  0.6672067050006693  0.06770192763984684          1.0000   
         C         C         1.0       0.5440837197284925  0.6618769212110251  0.06703367395709592          1.0000   
         C         C         1.0       0.5620529661987873  0.6681010884108145  0.09130465714657894          1.0000   
         C         C         1.0       0.5526497105117171  0.671775130612882   0.11703628896428116          1.0000   
         H         H         1.0       0.4956230408103162  0.6761336226252898  0.09600545633235134          1.0000   
         H         H         1.0       0.5076488267776065  0.6648171638891461  0.04887188412067234          1.0000   
         H         H         1.0       0.5785446328182301  0.6619784150819849  0.09483664990463934          1.0000   
         H         H         1.0       0.5658804960558264  0.6734551891231663  0.13547036844733196          1.0000   
         C         C         1.0       0.5548631364866308  0.6076786481508538  0.06813549919253033          1.0000   
         C         C         1.0       0.5608148447861913  0.6249948392174399  0.0442027374217726 1.0000   
         C         C         1.0       0.5808928299290498  0.626329803820176   0.023481222075427462         1.0000   
         C         C         1.0       0.5987168343491125  0.6161457820684729  0.030256365305250773         1.0000   
         C         C         1.0       0.5939788695252282  0.5999197313683269  0.055182528200834684         1.0000   
         C         C         1.0       0.5726326383202651  0.5967658559292452  0.07463350233893995          1.0000   
         C         C         1.0       0.5412444310336385  0.6398774315562515  0.03999069667824773          1.0000   
         C         C         1.0       0.5524863433098174  0.6621120883023718  0.012686176048446685         1.0000   
         C         C         1.0       0.5843733093186732  0.6842612281074558  0.009105354640712049         1.0000   
         C         C         1.0       0.5947242256397091  0.704691131720143   0.9869896150881189 1.0000   
         C         C         1.0       0.5734055778425634  0.7056299719599591  0.9704706040384177 1.0000   
         C         C         1.0       0.5433360290740524  0.6850081199744609  0.9744192356062722 1.0000   
         C         C         1.0       0.5331928837646872  0.6627551784714878  0.9938314343711344 1.0000   
         C         C         1.0       0.4922829870401329  0.5999693911333485  0.06730054889480461          1.0000   
         C         C         1.0       0.46462043355272337           0.5746992847380531 0.06806897178589003          1.0000   
         C         C         1.0       0.4525400142843813  0.5553390266374336  0.04426834571534877          1.0000   
         C         C         1.0       0.46693728927586103           0.5679376883654805 0.017885879116833703         1.0000   
         C         C         1.0       0.49291110015200884           0.5966245496571513 0.016322270029352604         1.0000   
         C         C         1.0       0.5065767510939093  0.6110975342501873  0.04043255716915706          1.0000   
         C         C         1.0       0.4106435567427018  0.5243574518878947  0.5005726007339683 1.0000   
         C         C         1.0       0.49458997590324255           0.5278053986586625 0.4930706083647424 1.0000   
         C         C         1.0       0.4681295714128779  0.501893120233676   0.49668976154401295          1.0000   
         C         C         1.0       0.4411914691351867  0.5006634779246727  0.49765486855608004          1.0000   
         C         C         1.0       0.44081269426727515           0.5257514960010212 0.49246441810003827          1.0000   
         C         C         1.0       0.4684309037214279  0.5518097637662752  0.4850349063293217 1.0000   
         C         C         1.0       0.49494068721370704           0.5523390419829977 0.48545340587019353          1.0000   
         C         C         1.0       0.403442412621645   0.5422841117016574  0.47703860280140237          1.0000   
         C         C         1.0       0.38459422770217    0.5518011748762266  0.484576339253746  1.0000   
         C         C         1.0       0.3766025753853107  0.5652831455757018  0.4649689553136972 1.0000   
         C         C         1.0       0.3876694058690676  0.570241294495361   0.4372749081393867 1.0000   
         C         C         1.0       0.4081863980182202  0.5619675770267502  0.4283326809037418 1.0000   
         C         C         1.0       0.41474563978284945           0.5477805238245654 0.44816375634436734          1.0000   
         C         C         1.0       0.3713081089345156  0.47314079241348406           0.4799422879866171 1.0000   
         C         C         1.0       0.3427518187379666  0.44838976562123856           0.4779251307766824 1.0000   
         C         C         1.0       0.31976731831121197           0.44477047322587826          0.495601344481109  1.0000   
         C         C         1.0       0.3261351418628682  0.4632697207342082  0.5178988391660231 1.0000   
         C         C         1.0       0.3549836227991602  0.4872815742068985  0.5208510506680185 1.0000   
         C         C         1.0       0.37852517997344903           0.49338507024570477          0.5007583016459624 1.0000   
         H         H         1.0       0.5405672160754454  0.6040068499331772  0.08811469431975011          1.0000   
         H         H         1.0       0.5819411248253921  0.6361480071684467  0.003306603828672205         1.0000   
         H         H         1.0       0.6155402042916338  0.6182940606738611  0.015643089294195667         1.0000   
         H         H         1.0       0.5671870112091811  0.5825186961674043  0.09300421749551427          1.0000   
         H         H         1.0       0.599850294478736   0.685439365433253   0.024862060941483133         1.0000   
         H         H         1.0       0.617334019692562   0.7228688610687103  0.9848821933227605 1.0000   
         H         H         1.0       0.5261405403359221  0.6877608023401325  0.9671300034238455 1.0000   
         H         H         1.0       0.5083811791261803  0.6493290683769626  0.9986931399494858 1.0000   
         H         H         1.0       0.5024448900125673  0.6097348247832277  0.08731676581241828          1.0000   
         H         H         1.0       0.4565514241128823  0.5674605857221847  0.08941161802549039          1.0000   
         H         H         1.0       0.4587566260850424  0.5540921876659851  0.9988899342720198 1.0000   
         H         H         1.0       0.5036245209319503  0.6034854963796421  0.9953306471772202 1.0000   
         H         H         1.0       0.46646521683320097           0.48251192952099903          0.5016776288730616 1.0000   
         H         H         1.0       0.42093442739466874           0.4794602598159791 0.5051813841703889 1.0000   
         H         H         1.0       0.4687936926049864  0.5715153883535238  0.4803354257241216 1.0000   
         H         H         1.0       0.5168555976400162  0.5717524152651746  0.47875051893024495          1.0000   
         H         H         1.0       0.373353179337349   0.5431681808319925  0.5053659237847542 1.0000   
         H         H         1.0       0.36139959736700106           0.5703255954783012 0.4726962882441317 1.0000   
         H         H         1.0       0.41342875830070147           0.5600365764996216 0.40569735657613704          1.0000   
         H         H         1.0       0.4287567386494847  0.5395573075206815  0.4434287343820277 1.0000   
         H         H         1.0       0.38803361482894594           0.476778246905827  0.46367684346531707          1.0000   
         H         H         1.0       0.33435531384940814           0.434308727026452  0.4590312661082458 1.0000   
         H         H         1.0       0.3588070202550371  0.5288774281139771  0.1117701329086707 1.0000   
         H         H         1.0       0.4033355815268823  0.5487815941348485  0.07506470413379794          1.0000   
         C         C         1.0       0.6907718180302733  0.9027981150298866  0.23451031859647953          1.0000   
         C         C         1.0       0.6712171609393307  0.889671542773244   0.25673188039406586          1.0000   
         C         C         1.0       0.6750556321928618  0.8750643794234207  0.27866905886014376          1.0000   
         C         C         1.0       0.70163788191275    0.8744006423925198  0.27873497853548757          1.0000   
         C         C         1.0       0.7233323476798943  0.8916424700357503  0.2580238693793519 1.0000   
         C         C         1.0       0.7183853488750502  0.9053862115057637  0.23532962007407937          1.0000   
         H         H         1.0       0.6489369483766187  0.8876355291432234  0.2556560183650702 1.0000   
         H         H         1.0       0.6580755869546195  0.8624271409357631  0.29476994375993526          1.0000   
         H         H         1.0       0.7421461516580552  0.8892037885933736  0.2585328037348015 1.0000   
         H         H         1.0       0.7330130914155498  0.9134568252226988  0.2159817508658857 1.0000   
         C         C         1.0       0.7172946813140783  0.8296443752367011  0.25678355334680253          1.0000   
         C         C         1.0       0.7216998092820938  0.839267202979599   0.2844799653972839 1.0000   
         C         C         1.0       0.7394512030469375  0.8338328311014199  0.30175263371510475          1.0000   
         C         C         1.0       0.7522116009097404  0.8190109857267871  0.29076723601228766          1.0000   
         C         C         1.0       0.7481203694555579  0.8103047526515091  0.26312851737696025          1.0000   
         C         C         1.0       0.7315696686709272  0.8162148726293045  0.24556446977173896          1.0000   
         C         C         1.0       0.7034375033591206  0.8516328329971433  0.2994339004284361 1.0000   
         C         C         1.0       0.6704055453619214  0.8209084123603391  0.30418280507599066          1.0000   
         C         C         1.0       0.6648069572293995  0.803518791154761   0.32847701994475675          1.0000   
         C         C         1.0       0.6379993688245962  0.7763613913062556  0.33171168163132914          1.0000   
         C         C         1.0       0.6142436159341439  0.7662126784100806  0.31253975579678384          1.0000   
         C         C         1.0       0.6200206394443261  0.7823342328754482  0.28790366217158075          1.0000   
         C         C         1.0       0.6478168405736825  0.808775873982703   0.28329076427172367          1.0000   
         C         C         1.0       0.7487881717989434  0.8920825963687979  0.32649986979843365          1.0000   
         C         C         1.0       0.7617287599317099  0.9063328741924608  0.3507527214214414 1.0000   
         C         C         1.0       0.7444030551920752  0.9058326520651554  0.3752219773053387 1.0000   
         C         C         1.0       0.713129659077211   0.8914179733009134  0.37239159243942244          1.0000   
         C         C         1.0       0.699502016930074   0.874943176266439   0.34823859886967157          1.0000   
         C         C         1.0       0.7172107755374796  0.8729090846716501  0.3266142321481008 1.0000   
         C         C         1.0       0.7592302200140335  0.9109227500038669  0.40538297985838273          1.0000   
         C         C         1.0       0.775225818989671   0.8380609871152644  0.41073860619402064          1.0000   
         C         C         1.0       0.7983216047282017  0.8675746494262252  0.41039137347722043          1.0000   
         C         C         1.0       0.7935021485025111  0.8902213597091532  0.4123677358080357 1.0000   
         C         C         1.0       0.7652990241549884  0.884813683693307   0.40869451555400566          1.0000   
         C         C         1.0       0.742029959602349   0.8555222186191027  0.40735763583609513          1.0000   
         C         C         1.0       0.7462706159695744  0.8325692900002466  0.40919160817245503          1.0000   
         C         C         1.0       0.7382069333337608  0.9120044602008012  0.43066288766861827          1.0000   
         C         C         1.0       0.730733161329753   0.9321325506170558  0.4311102434836583 1.0000   
         C         C         1.0       0.7100148966061606  0.9306014713507521  0.44976184035132205          1.0000   
         C         C         1.0       0.6932265557461529  0.9070526044866369  0.46779446225766197          1.0000   
         C         C         1.0       0.703254900548024   0.8883652049557634  0.47078419612811473          1.0000   
         C         C         1.0       0.7253500224863352  0.8906694353377347  0.45254389423445196          1.0000   
         C         C         1.0       0.8034188609930822  0.9514889286696611  0.4369100959399912 1.0000   
         C         C         1.0       0.8308618395542766  0.9776807223924597  0.4406876278185543 1.0000   
         C         C         1.0       0.8423431735344037  0.9993796946810666  0.41968185877761865          1.0000   
         C         C         1.0       0.8285078962720088  0.9915593808450317  0.39340696376631124          1.0000   
         C         C         1.0       0.8024480457993198  0.9658649460042418  0.38746126787179297          1.0000   
         C         C         1.0       0.7895171883975369  0.942836196675941   0.4092606964666719 1.0000   
         H         H         1.0       0.704319220731718   0.8342993471949326  0.2417342595905688 1.0000   
         H         H         1.0       0.7436728745136453  0.8405322900440961  0.32389015177629477          1.0000   
         H         H         1.0       0.7669069546065885  0.8151245769571307  0.303380029174368  1.0000   
         H         H         1.0       0.7264520686214426  0.807450637275528   0.22374770064250013          1.0000   
         H         H         1.0       0.6828423172517126  0.810212834252498   0.344139965937435  1.0000   
         H         H         1.0       0.6359606728657027  0.7638510130272846  0.35097193954912204          1.0000   
         H         H         1.0       0.6032227768548214  0.7726915541095238  0.2714816290926312 1.0000   
         H         H         1.0       0.6505260910955364  0.8202405355171734  0.2623400651438315 1.0000   
         H         H         1.0       0.7625218612653356  0.8921563627758295  0.30784792555389384          1.0000   
         H         H         1.0       0.7860340675860212  0.9171802400797983  0.3476767967159748 1.0000   
         H         H         1.0       0.698285877824308   0.8902144658163897  0.39029975264025774          1.0000   
         H         H         1.0       0.674796935004929   0.8638352378572822  0.3463708555017448 1.0000   
         H         H         1.0       0.8195027766248364  0.8697424020688213  0.4128344153877941 1.0000   
         H         H         1.0       0.8135744027891176  0.9118582378946739  0.4114523614708318 1.0000   
         H         H         1.0       0.7187601844488806  0.8505193438465573  0.4026933072848796 1.0000   
         H         H         1.0       0.7251626785715071  0.8093230041115912  0.4093197494682692 1.0000   
         H         H         1.0       0.7395358376605985  0.9494195688841042  0.4150740437804554 1.0000   
         H         H         1.0       0.7029924478227093  0.9454625199867875  0.44661612486461727          1.0000   
         H         H         1.0       0.6918073949054396  0.8706546935863899  0.4875106331001345 1.0000   
         H         H         1.0       0.7316759010034393  0.8756216651991175  0.45689809094960554          1.0000   
         H         H         1.0       0.7905706104128465  0.9366277393750942  0.45440021158529387          1.0000   
         H         H         1.0       0.8409560875316484  0.9821558317515284  0.46201911424171227          1.0000   
         H         H         1.0       0.8371874196574597  0.0074408007272182  0.3743301829892413 1.0000   
         H         H         1.0       0.7929687225523615  0.960647565337136   0.36604824757262105          1.0000   
         C         C         1.0       0.6840408384955768  0.8979900742134768  0.5383298047791333 1.0000   
         C         C         1.0       0.6601707649453812  0.8760455828366297  0.5539421405307445 1.0000   
         C         C         1.0       0.7424750745997005  0.8480533984169241  0.00450994142877037          1.0000   
         C         C         1.0       0.7339135427692492  0.8183373286072598  0.0075623770892512265        1.0000   
         C         C         1.0       0.7151313746573329  0.8819048266206987  0.5562003015594279 1.0000   
         C         C         1.0       0.7118701353237392  0.9009882955001797  0.5395207524761051 1.0000   
         H         H         1.0       0.637874679986987   0.8730523713543457  0.5536140428199514 1.0000   
         H         H         1.0       0.7303245729362777  0.8550335286541348  0.016531912732572707         1.0000   
         H         H         1.0       0.7370676156911717  0.8858893738738186  0.5584619659543157 1.0000   
         H         H         1.0       0.7311511224325417  0.9203605337614488  0.5284680751503575 1.0000   
         C         C         1.0       0.7251826480397849  0.8311046411378902  0.543932067432925  1.0000   
         C         C         1.0       0.6914159014933785  0.761236443417867   0.022815156544061743         1.0000   
         C         C         1.0       0.6810732577832842  0.742826366215259   0.04695917224158408          1.0000   
         C         C         1.0       0.6744306425662894  0.7149233151735437  0.046880795002438136         1.0000   
         C         C         1.0       0.7596947078649271  0.8162566489312576  0.5499982139370113 1.0000   
         C         C         1.0       0.7444795351400024  0.8235235026606805  0.5322733563124524 1.0000   
         C         C         1.0       0.7016572848286147  0.7952108190156033  0.022636032574477216         1.0000   
         C         C         1.0       0.6736958689254636  0.7922095750970688  0.007334814449415861         1.0000   
         C         C         1.0       0.6472633400427665  0.7825171172622469  0.02298172581754576          1.0000   
         C         C         1.0       0.6205178336262684  0.7717307025234498  0.009139203795518247         1.0000   
         C         C         1.0       0.6201746521280604  0.7743608852633476  0.979740918102765  1.0000   
         C         C         1.0       0.6472140936101696  0.7903529394425026  0.9651509389840394 1.0000   
         C         C         1.0       0.6738633103638827  0.7981610141352474  0.978706478820491  1.0000   
         C         C         1.0       0.7324839010252477  0.8074087224360943  0.07010490234557347          1.0000   
         C         C         1.0       0.7387316430860437  0.8167641303426803  0.09792916871211224          1.0000   
         C         C         1.0       0.7226180449391144  0.8262346014485561  0.11284773811694684          1.0000   
         C         C         1.0       0.6993786536253771  0.8264061967337583  0.09843541426901567          1.0000   
         C         C         1.0       0.6951253683659766  0.8195318788768461  0.06973741281345416          1.0000   
         C         C         1.0       0.7098373886504066  0.8077217722692545  0.05602595625331363          1.0000   
         C         C         1.0       0.7286759915257865  0.8335757394989777  0.14613363010865701          1.0000   
         C         C         1.0       0.7135131563364072  0.7490019356575263  0.16805817270585005          1.0000   
         C         C         1.0       0.7432658099057192  0.7739031310524659  0.16427691442672146          1.0000   
         C         C         1.0       0.7483379228286235  0.800546073540363   0.16120241439229865          1.0000   
         C         C         1.0       0.7244549900846473  0.8042739675730091  0.15973861369768852          1.0000   
         C         C         1.0       0.6951648999520844  0.7790276668196303  0.15797878391258632          1.0000   
         C         C         1.0       0.6895394736904724  0.7511925535333269  0.1628454404724249 1.0000   
         C         C         1.0       0.7116119386375543  0.8474889364415176  0.16034228081263302          1.0000   
         C         C         1.0       0.717941449057792   0.8741257268927104  0.14826368001654755          1.0000   
         C         C         1.0       0.7009338808798402  0.8847903932819158  0.15675385419685622          1.0000   
         C         C         1.0       0.6770439025911446  0.8694533090502194  0.1766065329537295 1.0000   
         C         C         1.0       0.6706481965610592  0.8432729708007334  0.18663356628301173          1.0000   
         C         C         1.0       0.6886790216287396  0.8326221317374003  0.1807491944010904 1.0000   
         C         C         1.0       0.774073242466355   0.8681607748250302  0.1789891112239277 1.0000   
         C         C         1.0       0.80192148618976    0.8932884376985422  0.1846813006700055 1.0000   
         C         C         1.0       0.819867832258008   0.9113660211772041  0.16217163697456544          1.0000   
         C         C         1.0       0.8109183283992035  0.9026147332120138  0.13484773026239524          1.0000   
         C         C         1.0       0.7814612347768457  0.8777963054112705  0.12877516153365923          1.0000   
         C         C         1.0       0.7635220945829393  0.8599607572764928  0.15160460256351757          1.0000   
         H         H         1.0       0.714133233081356   0.8369649534951272  0.5283303399997257 1.0000   
         H         H         1.0       0.6778945463479891  0.7506189185843442  0.06772475856051141          1.0000   
         H         H         1.0       0.6684502560564595  0.7027837408788017  0.06807320620487382          1.0000   
         H         H         1.0       0.7444436834953244  0.8216904027580547  0.5092339953771268 1.0000   
         H         H         1.0       0.6473706543496972  0.778640086546975   0.04611416859261563          1.0000   
         H         H         1.0       0.600099262524826   0.760218333231354   0.021228607932755494         1.0000   
         H         H         1.0       0.6494565348323048  0.7951065293487497  0.9424140390428782 1.0000   
         H         H         1.0       0.6524451739566375  0.8063291616957101  0.5483478958578426 1.0000   
         H         H         1.0       0.7430598999960193  0.7973932493793802  0.05874291278751653          1.0000   
         H         H         1.0       0.7552484555462052  0.8157941867127558  0.10885658390870454          1.0000   
         H         H         1.0       0.6876961400349165  0.8350321581112244  0.10818862737081049          1.0000   
         H         H         1.0       0.6756613968986875  0.820994934652281   0.06210052808505431          1.0000   
         H         H         1.0       0.7621422699275473  0.7701561902833012  0.1661509313107376 1.0000   
         H         H         1.0       0.7712342253363573  0.8178234298519501  0.15804440946255768          1.0000   
         H         H         1.0       0.675041034680473   0.7791349088432181  0.1536034517139575 1.0000   
         H         H         1.0       0.6657795782973135  0.7333481547148153  0.16458643390693783          1.0000   
         H         H         1.0       0.7361765727092464  0.8862307026937951  0.13305325929686276          1.0000   
         H         H         1.0       0.704289191835268   0.904070479706333   0.14615810163737775          1.0000   
         H         H         1.0       0.6508487108043842  0.8285123075170595  0.20217962570438452          1.0000   
         H         H         1.0       0.6844709243731132  0.8134663934721484  0.19143917448380074          1.0000   
         H         H         1.0       0.7603525436417231  0.8536261853261314  0.19680824473861244          1.0000   
         H         H         1.0       0.8104879571834986  0.8997083010721785  0.2058246152382011 1.0000   
         H         H         1.0       0.8238427012520296  0.917679090717352   0.11741551875583135          1.0000   
         H         H         1.0       0.7770435741546823  0.8745799159465787  0.10587925671362747          1.0000   
         C         C         1.0       0.0054410934848949655         0.382950616758395  0.1770913709991898 1.0000   
         C         C         1.0       0.9976286065186847  0.4030947174004476  0.17505591451313315          1.0000   
         C         C         1.0       0.013992495154428575          0.4262365364494322 0.15585766989080302          1.0000   
         C         C         1.0       0.04263893287236731           0.4336094159209441 0.14414639405620844          1.0000   
         C         C         1.0       0.048623899907262125          0.4122419639821545 0.14736954833310784          1.0000   
         C         C         1.0       0.030060499213065084          0.38730503213323875          0.1626319463490004 1.0000   
         H         H         1.0       0.9785287774634206  0.4013644200571329  0.18728606850855434          1.0000   
         H         H         1.0       0.00749799993857958           0.4412067307866794 0.1526310702194888 1.0000   
         H         H         1.0       0.06903707731371256           0.41475708226223484          0.13898458573580544          1.0000   
         H         H         1.0       0.037657431263133256          0.3728084173508729 0.16309704984931994          1.0000   
         C         C         1.0       0.11239028689141506           0.4769349950367663 0.15415150210240938          1.0000   
         C         C         1.0       0.09829308987388363           0.481899851716772  0.13112873240199818          1.0000   
         C         C         1.0       0.11783675213108809           0.5024666315298342 0.10998863207001082          1.0000   
         C         C         1.0       0.148083530161047   0.5164220134783868  0.11150867636789485          1.0000   
         C         C         1.0       0.16156839985210913           0.5123594150233725 0.13318536612077517          1.0000   
         C         C         1.0       0.1432571783086721  0.4918417578948064  0.1551141997794832 1.0000   
         C         C         1.0       0.06270192533486241           0.46397610800034755          0.12609863122623072          1.0000   
         C         C         1.0       0.06131192512523542           0.49061673086700547          0.13850318264324463          1.0000   
         C         C         1.0       0.059663688892673594          0.5116482635273781 0.12252441600582971          1.0000   
         C         C         1.0       0.048789508310078444          0.5267256886643972 0.13715912628339744          1.0000   
         C         C         1.0       0.04422013617238352           0.5258137324916444 0.16589702539972165          1.0000   
         C         C         1.0       0.052427114851181233          0.5111272077096111 0.1820033427144559 1.0000   
         C         C         1.0       0.058390172252114736          0.49186474591206514          0.16977808898595   1.0000   
         C         C         1.0       0.06660798074021557           0.4417258250799024 0.08216616743886399          1.0000   
         C         C         1.0       0.058586324719979155          0.4292025654350441 0.05641357096695331          1.0000   
         C         C         1.0       0.053063572241043744          0.5067814500555701 0.5505793235002272 1.0000   
         C         C         1.0       0.04043606378996367           0.521193967989951  0.5420061171437287 1.0000   
         C         C         1.0       0.031151778338446512          0.45518578098050394          0.08015449970782332          1.0000   
         C         C         1.0       0.05281149154944842           0.45436019689054075          0.094579090942889  1.0000   
         C         C         1.0       0.031386904719003184          0.47097418865492874          0.5518093407032807 1.0000   
         C         C         1.0       0.10158181747001714           0.4606597610549014 0.5864760580432784 1.0000   
         C         C         1.0       0.07679081163785341           0.45374888969865973          0.6041665192332029 1.0000   
         C         C         1.0       0.05220967623270763           0.4537775986796928 0.5931485580109916 1.0000   
         C         C         1.0       0.051287778460551214          0.4592923509781373 0.5638599906912534 1.0000   
         C         C         1.0       0.07408971699778132           0.462113069459231  0.5468576731132175 1.0000   
         C         C         1.0       0.09961700499391371           0.4648843194526521 0.5575485942514596 1.0000   
         C         C         1.0       0.017948470872752642          0.45400875729923806          0.5212906504316221 1.0000   
         C         C         1.0       0.004612891056710922          0.4228041932142874 0.5198396633157814 1.0000   
         C         C         1.0       0.9971678255555757  0.409127357181937   0.4934854376164927 1.0000   
         C         C         1.0       0.997875362625118   0.42315608845403446           0.4691850534709941 1.0000   
         C         C         1.0       0.009336109072367815          0.45320105464774046          0.4705691357891974 1.0000   
         C         C         1.0       0.01975330804130393           0.4681178445090328 0.4957234870517076 1.0000   
         C         C         1.0       0.004774747725322381          0.4725756761016023 0.6003228651869762 1.0000   
         C         C         1.0       0.9812676119375507  0.464481760525999   0.6174819080462435 1.0000   
         C         C         1.0       0.9522286199012552  0.44311522512893614           0.6106829745674499 1.0000   
         C         C         1.0       0.9464067213507527  0.431470249297274   0.5826997416095462 1.0000   
         C         C         1.0       0.9705919926997271  0.44120551834409716           0.5645084993343523 1.0000   
         C         C         1.0       0.9998660839507753  0.4597135996683585  0.5726971306956302 1.0000   
         H         H         1.0       0.09990052332487775           0.4570779327534882 0.1684299446862631 1.0000   
         H         H         1.0       0.1116185157601716  0.5097087159744202  0.09093983351628601          1.0000   
         H         H         1.0       0.15984235097575103           0.5336325801528268 0.09673234119043224          1.0000   
         H         H         1.0       0.15373990161183462           0.4891634114076039 0.1743747616967846 1.0000   
         H         H         1.0       0.060329299296354   0.5119846542226726  0.0992374673479801 1.0000   
         H         H         1.0       0.08450613426312348           0.6251557638271854 0.4680509940348236 1.0000   
         H         H         1.0       0.05080950029816278           0.5110518861435415 0.20598811357050187          1.0000   
         H         H         1.0       0.05770299651569655           0.4759652091721073 0.18213776360617753          1.0000   
         H         H         1.0       0.08075360541531684           0.43814390719758717          0.09497528307359637          1.0000   
         H         H         1.0       0.06955436304258522           0.41882082240126933          0.04646354190057034          1.0000   
         H         H         1.0       0.01953822300470298           0.5088417757532977 0.5322026319389058 1.0000   
         H         H         1.0       0.017948982742212127          0.4622308165213743 0.09125122190078519          1.0000   
         H         H         1.0       0.07510770271674204           0.450986949819507  0.6274835662517613 1.0000   
         H         H         1.0       0.037057882277366616          0.4509997837884519 0.6107357064217729 1.0000   
         H         H         1.0       0.07306767674221959           0.46568872336649286          0.5236749440390955 1.0000   
         H         H         1.0       0.1187260354748644  0.4681349988515091  0.5432392677531827 1.0000   
         H         H         1.0       0.004131704087235066          0.40974841628334185          0.5383059185729511 1.0000   
         H         H         1.0       0.9907927255125796  0.38728197468390374           0.49195160914631914          1.0000   
         H         H         1.0       0.011861843277436002          0.46478422546903203          0.45101071418074967          1.0000   
         H         H         1.0       0.030206311750457626          0.4914774933912024 0.4927715780954263 1.0000   
         H         H         1.0       0.02845577376218933           0.48844424890606986          0.6059208849972839 1.0000   
         H         H         1.0       0.9866814413487551  0.4764850908399197  0.6362675657501757 1.0000   
         H         H         1.0       0.014127157005964452          0.33017513058951614          0.017684532258256613         1.0000   
         H         H         1.0       0.015319133420139686          0.3743964661933725 0.03573323944831608          1.0000   
         C         C         1.0       0.020866813362577563          0.4411299203473449 0.40084980324918584          1.0000   
         C         C         1.0       0.0016726537205953296         0.4458733575529952 0.3862264779878723 1.0000   
         C         C         1.0       0.012435948378093586          0.47413912616567155          0.37644280249128864          1.0000   
         C         C         1.0       0.040088422315387895          0.49846738697238235          0.3847605154172824 1.0000   
         C         C         1.0       0.058940514347483486          0.4923034463440491 0.39862496887840815          1.0000   
         C         C         1.0       0.04961674633352087           0.46341079841737465          0.40613891326817014          1.0000   
         H         H         1.0       0.9817865625928883  0.42605298619686066           0.37928998040345935          1.0000   
         H         H         1.0       0.9973242029842737  0.47884400769177243           0.36515673310082825          1.0000   
         H         H         1.0       0.08085180606100018           0.5084884820532363 0.404980884856448  1.0000   
         H         H         1.0       0.06407763338793404           0.4590208968387887 0.41618809007098606          1.0000   
         C         C         1.0       0.073700535591238   0.5545212978897656  0.4201407570286949 1.0000   
         C         C         1.0       0.07494491009147727           0.5576899916954634 0.3908629415851775 1.0000   
         C         C         1.0       0.09745625863301112           0.585277572589991  0.38063510973195624          1.0000   
         C         C         1.0       0.12111526561214143           0.6059099390601216 0.39832912540235227          1.0000   
         C         C         1.0       0.12025293128660998           0.5994636133692433 0.42666274844634716          1.0000   
         C         C         1.0       0.09503250224497047           0.5757914915006395 0.4380591387525397 1.0000   
         C         C         1.0       0.051827078088190426          0.5305085305848788 0.37113037320512127          1.0000   
         C         C         1.0       0.02716002901601522           0.5379767984761837 0.36427288365076865          1.0000   
         C         C         1.0       0.029974778341796515          0.555608051509585  0.3411077799432321 1.0000   
         C         C         1.0       0.009312473839590885          0.5629644783565819 0.33808752284218735          1.0000   
         C         C         1.0       0.9862992713064628  0.5539602550462662  0.3582519030515693 1.0000   
         C         C         1.0       0.9854137811027749  0.5392599373690673  0.3822370123414834 1.0000   
         C         C         1.0       0.005259795201456807          0.5305078592457345 0.3855051816419678 1.0000   
         C         C         1.0       0.09531167441120991           0.5298789489371103 0.34547736883264135          1.0000   
         C         C         1.0       0.10378567233284142           0.514726766071243  0.3287113728161543 1.0000   
         C         C         1.0       0.08394867399768091           0.49530480564152746          0.3087601393945948 1.0000   
         C         C         1.0       0.05942142296078545           0.4968004470722567 0.3015024871512527 1.0000   
         C         C         1.0       0.05134905946571933           0.5120298010142962 0.31963325215359956          1.0000   
         C         C         1.0       0.06788156671607615           0.5269496953088246 0.3434508702610376 1.0000   
         C         C         1.0       0.08732041551032022           0.46975100898837774          0.29378165700179804          1.0000   
         C         C         1.0       0.163840173966688   0.5280556005318743  0.2373449203637314 1.0000   
         C         C         1.0       0.16910786037618816           0.5189334660965078 0.26316421270978013          1.0000   
         C         C         1.0       0.14443375538746575           0.5005786674167599 0.28144162918042054          1.0000   
         C         C         1.0       0.11499728686842237           0.4903375992195709 0.2730728084979556 1.0000   
         C         C         1.0       0.11092856733464014           0.5021920691704937 0.24851691045958776          1.0000   
         C         C         1.0       0.135162896469755   0.5198394716201591  0.22937939604002017          1.0000   
         C         C         1.0       0.05916090479105418           0.44208282341140875          0.2758561584329421 1.0000   
         C         C         1.0       0.028560396886596617          0.42826135697494805          0.2836376220971856 1.0000   
         C         C         1.0       0.006432705823552043          0.40505082795464203          0.2685405873594984 1.0000   
         C         C         1.0       0.013786569762509915          0.39230047849595645          0.24698356170836275          1.0000   
         C         C         1.0       0.044572863498978155          0.4046909676325491 0.24002811833178087          1.0000   
         C         C         1.0       0.06629625563329178           0.4302910440414602 0.2523983194317509 1.0000   
         C         C         1.0       0.10389307980369322           0.4349713047929107 0.30921827148259773          1.0000   
         C         C         1.0       0.09615657444206693           0.4103047396064069 0.3242711585543497 1.0000   
         C         C         1.0       0.08059032585825188           0.4034978092069286 0.3488141363392127 1.0000   
         C         C         1.0       0.06832920234688089           0.41925375877916077          0.3572301012208943 1.0000   
         C         C         1.0       0.07267970796120893           0.4418993535915135 0.34074566677409185          1.0000   
         C         C         1.0       0.0906316317496445  0.4509995533218364  0.3170508914886159 1.0000   
         H         H         1.0       0.05504588774685004           0.5349234094670985 0.4320384536371359 1.0000   
         H         H         1.0       0.0966197242691857  0.5880503102757897  0.35719666013947393          1.0000   
         H         H         1.0       0.1397497940302445  0.623999029149729   0.3875411472460547 1.0000   
         H         H         1.0       0.09139666635124771           0.5690426961330192 0.459602419479726  1.0000   
         H         H         1.0       0.047663742841754675          0.563004109666627  0.3258380659082674 1.0000   
         H         H         1.0       0.011114928593586657          0.5741743354541334 0.3173907020946609 1.0000   
         H         H         1.0       0.9708783748347295  0.5347048228959296  0.3991680391171418 1.0000   
         H         H         1.0       0.0031693775466776763         0.5191996658664325 0.4058262459507163 1.0000   
         H         H         1.0       0.11305618660209316           0.5429961021770362 0.3617257275770914 1.0000   
         H         H         1.0       0.12358073338769615           0.5164690169833747 0.33464638599118246          1.0000   
         H         H         1.0       0.045088234640302316          0.48334071437167286          0.2840086543669227 1.0000   
         H         H         1.0       0.029135041669506867          0.509870938892642  0.3163293898722554 1.0000   
         H         H         1.0       0.19086180238297573           0.5252136975875763 0.2677824493591407 1.0000   
         H         H         1.0       0.14977902674144075           0.493189188359247  0.30100252895179885          1.0000   
         H         H         1.0       0.0888885334726579  0.49603912004703665           0.24514410771666592          1.0000   
         H         H         1.0       0.1308404002866598  0.5285043741298202  0.21101962139425331          1.0000   
         H         H         1.0       0.022374184081951576          0.4366889707658879 0.30177367439864133          1.0000   
         H         H         1.0       0.9832521182159638  0.39510327901353925           0.2764245408516109 1.0000   
         H         H         1.0       0.049814661177392194          0.3928893248345459 0.22465422754892667          1.0000   
         H         H         1.0       0.08975069431237248           0.4388485562640763 0.2470335861063812 1.0000   
         H         H         1.0       0.11516460973752651           0.4377052130339055 0.28875582600464117          1.0000   
         H         H         1.0       0.10402288590597775           0.3967737979326968 0.31727309162502537          1.0000   
         H         H         1.0       0.05379437500984707           0.4127321131711328 0.37641183743208445          1.0000   
         H         H         1.0       0.061925363997976435          0.4534966477592282 0.34942961851773763          1.0000   
         C         C         1.0       0.9584188550910419  0.7567846584752148  0.5196485686711606 1.0000   
         C         C         1.0       0.9521684805342252  0.7285218850136419  0.5140391456047126 1.0000   
         C         C         1.0       0.895256811068464   0.48515362507300697           0.07039163680842313          1.0000   
         C         C         1.0       0.9912130356668174  0.7361051875503516  0.5442321307822803 1.0000   
         C         C         1.0       0.9974864659561274  0.7640487799343573  0.5519643146185108 1.0000   
         C         C         1.0       0.9811067611942816  0.7738421321319644  0.5395454118834382 1.0000   
         H         H         1.0       0.9349450853203455  0.7147289464907282  0.49758656931442496          1.0000   
         H         H         1.0       0.8961969094702469  0.4787760219445108  0.09192152328715006          1.0000   
         H         H         1.0       0.012200797415089948          0.7775912130713282 0.569544425609461  1.0000   
         H         H         1.0       0.986363149279248   0.7945974177723346  0.5443582317407903 1.0000   
         C         C         1.0       0.06294582399614046           0.774331621618987  0.5411317331773225 1.0000   
         C         C         1.0       0.04843616327785405           0.7535843120039314 0.5621156516739485 1.0000   
         C         C         1.0       0.0024819785910834067         0.5724863074901569 0.06082118787042248          1.0000   
         C         C         1.0       0.09359983198543602           0.771019693054297  0.5858431856865246 1.0000   
         C         C         1.0       0.10948244024499912           0.7928075989098556 0.5656146137637658 1.0000   
         C         C         1.0       0.0935326042992653  0.7935117590288241  0.5423298183544121 1.0000   
         C         C         1.0       0.9447438669220231  0.5385207812638986  0.07705133466603187          1.0000   
         C         C         1.0       0.952976433668581   0.5303988765090192  0.10771874062445339          1.0000   
         C         C         1.0       0.9700539048279874  0.5518640979177968  0.1276960520095291 1.0000   
         C         C         1.0       0.9793751874065956  0.5475047116395272  0.1537842256593945 1.0000   
         C         C         1.0       0.976578144842823   0.5214740157913305  0.15812202983945292          1.0000   
         C         C         1.0       0.9615926509403313  0.4987920346404396  0.13769320037330007          1.0000   
         C         C         1.0       0.02428792339961383           0.7140411445902646 0.5067692378345551 1.0000   
         C         C         1.0       0.9473582893714678  0.5848484248077377  0.05640270757807264          1.0000   
         C         C         1.0       0.9471448554680174  0.6101935733091847  0.061058894474027965         1.0000   
         C         C         1.0       0.9378424033794236  0.6155872577281114  0.08729279506742617          1.0000   
         C         C         1.0       0.9274330546860778  0.5930996716278228  0.10790466781972623          1.0000   
         C         C         1.0       0.9287614288124394  0.5687476588354741  0.10263002503996024          1.0000   
         C         C         1.0       0.9427899125443214  0.5660569224691242  0.07994767417412509          1.0000   
         C         C         1.0       0.9456592431919549  0.6488129819095473  0.09408010742237066          1.0000   
         C         C         1.0       0.04452044545665483           0.6857586527869621 0.09637826786473054          1.0000   
         C         C         1.0       0.03353761786180212           0.6927612223601075 0.0723929621802153 1.0000   
         C         C         1.0       0.003038844558332873          0.6813285015532704 0.07138026550863148          1.0000   
         C         C         1.0       0.9825789419660503  0.6655771343952972  0.09372558748532209          1.0000   
         C         C         1.0       0.9950408940532259  0.661200108570048   0.11791575628741312          1.0000   
         C         C         1.0       0.024593939809848957          0.6696974308028774 0.11947043160603017          1.0000   
         C         C         1.0       0.9338336847537947  0.6557848218203455  0.12199000954419095          1.0000   
         C         C         1.0       0.9057621846171986  0.6352871700793026  0.1353391279623307 1.0000   
         C         C         1.0       0.8983788190535359  0.6405446243346391  0.16263921275394794          1.0000   
         C         C         1.0       0.9186232694627751  0.6652539657641041  0.1771909314676838 1.0000   
         C         C         1.0       0.9458436567634078  0.6859647467314952  0.16388214896076347          1.0000   
         C         C         1.0       0.9512724912197738  0.6827100809859307  0.13551096180116473          1.0000   
         C         C         1.0       0.9444098626753932  0.6871321310203174  0.06142824100268701          1.0000   
         C         C         1.0       0.9312524149766219  0.6943623150607526  0.040387239162271715         1.0000   
         C         C         1.0       0.9030275363356404  0.6741784327352721  0.03181868571113733          1.0000   
         C         C         1.0       0.8882880030042072  0.6474308259411141  0.044568247697086116         1.0000   
         C         C         1.0       0.9030390378151957  0.638713425157291   0.061857195510737185         1.0000   
         C         C         1.0       0.9310177613588533  0.6580449630610314  0.07115333145181663          1.0000   
         H         H         1.0       0.05219966238596996           0.7781728180673586 0.522514689996081  1.0000   
         H         H         1.0       0.005922258877276006          0.5905592185492993 0.07200118732104366          1.0000   
         H         H         1.0       0.10573431490012458           0.7705409539786335 0.6040429299176734 1.0000   
         H         H         1.0       0.10502926926691489           0.8114934493777003 0.5285139092031101 1.0000   
         H         H         1.0       0.9795047568791091  0.5746694843220709  0.1210066527859191 1.0000   
         H         H         1.0       0.9927132806842317  0.564204236536037   0.16945224234723544          1.0000   
         H         H         1.0       0.03872229723613296           0.7064893080007124 0.4662973669535649 1.0000   
         H         H         1.0       0.022939723705981407          0.7330776089211803 0.4988818915060948 1.0000   
         H         H         1.0       0.9575467857997325  0.5829029515594303  0.03728341953914183          1.0000   
         H         H         1.0       0.9529813582470977  0.6251143732463694  0.04294020866174231          1.0000   
         H         H         1.0       0.9174570526045857  0.5930080174300966  0.12921900720056717          1.0000   
         H         H         1.0       0.9209484872548012  0.5524967230753318  0.12100813276101066          1.0000   
         H         H         1.0       0.04791696621807263           0.7050760130949176 0.05375090250738057          1.0000   
         H         H         1.0       0.9919337372973664  0.6792492678549776  0.05052392576492903          1.0000   
         H         H         1.0       0.9810533851117313  0.6488011156438889  0.1376895264268459 1.0000   
         H         H         1.0       0.034950710872450934          0.6678466801336687 0.13813936995733814          1.0000   
         H         H         1.0       0.88844712187353    0.6152675046573288  0.12335070107873931          1.0000   
         H         H         1.0       0.8784002179666578  0.6221070984319543  0.1719769641040477 1.0000   
         H         H         1.0       0.964766920314116   0.703195717901997   0.17755349885413804          1.0000   
         H         H         1.0       0.9743961558949027  0.7010488024239709  0.12726690969691515          1.0000   
         H         H         1.0       0.9675410975544173  0.7021417256854292  0.06872442043410529          1.0000   
         H         H         1.0       0.9420258295221388  0.7157313937162805  0.031087366188811583         1.0000   
         H         H         1.0       0.8641104653780626  0.6325732020986166  0.039517395514196085         1.0000   
         H         H         1.0       0.8919374503373415  0.6163205185470367  0.06758219571338027          1.0000   
         C         C         1.0       0.9535087706412665  0.6961837458118646  0.24848528305902173          1.0000   
         C         C         1.0       0.9426894950383156  0.6836024963804237  0.27509618278916226          1.0000   
         C         C         1.0       0.9618569074373556  0.6863094304945231  0.29685689068814786          1.0000   
         C         C         1.0       0.9931032966732715  0.7001939674246437  0.2918193145298708 1.0000   
         C         C         1.0       0.003860443799693636          0.7132297619791423 0.26449209320225264          1.0000   
         C         C         1.0       0.9839355703300412  0.7117794765342604  0.24307523540715376          1.0000   
         H         H         1.0       0.9187967831409289  0.6765226604190395  0.27852290611989056          1.0000   
         H         H         1.0       0.9509796881578986  0.6759622622147259  0.3175838359322409 1.0000   
         H         H         1.0       0.0265004099329873  0.7232758445683639  0.2576552054665974 1.0000   
         H         H         1.0       0.9915407659912633  0.7233167971109025  0.22357131649707326          1.0000   
         C         C         1.0       0.05193356998796641           0.6982867612199408 0.28676103884874277          1.0000   
         C         C         1.0       0.0478745112721874  0.71041091015384    0.31057262156514626          1.0000   
         C         C         1.0       0.07245880571147498           0.726522585654486  0.32821194018659455          1.0000   
         C         C         1.0       0.1006432835556095  0.7325240333652783  0.32217292083131155          1.0000   
         C         C         1.0       0.10502487794057949           0.7210939858888782 0.29832992386424634          1.0000   
         C         C         1.0       0.07968235582999582           0.70177520968045   0.28181573423451384          1.0000   
         C         C         1.0       0.014219214088554422          0.7012664415310654 0.31647883611302796          1.0000   
         C         C         1.0       0.0021691273943751366         0.6704848729992688 0.33317014056481475          1.0000   
         C         C         1.0       0.009604778122549895          0.6677151386840465 0.3606511618296769 1.0000   
         C         C         1.0       0.9990574852772792  0.6400013921714209  0.3726976592337993 1.0000   
         C         C         1.0       0.9780145551218322  0.6144445623941118  0.3588887386236042 1.0000   
         C         C         1.0       0.9705638332799893  0.6172838961124473  0.3327387660138272 1.0000   
         C         C         1.0       0.9843246609045103  0.6444658024532502  0.3186254203843385 1.0000   
         C         C         1.0       0.0327696943517648  0.7552071236998549  0.3276214794381963 1.0000   
         C         C         1.0       0.03965921508941528           0.7786487599362856 0.34583906778339735          1.0000   
         C         C         1.0       0.028412639544044493          0.7735128419115598 0.3740591448023488 1.0000   
         C         C         1.0       0.007880906626341444          0.7442310144925586 0.38063501498619157          1.0000   
         C         C         1.0       0.0006491299043174248         0.7217367883540363 0.36365594663007683          1.0000   
         C         C         1.0       0.015288977068109721          0.72660348101996   0.33717883684490196          1.0000   
         C         C         1.0       0.04071114648928509           0.7992617123376095 0.3963360952606745 1.0000   
         C         C         1.0       0.11776129607434847           0.7938869307264966 0.41819294755416014          1.0000   
         C         C         1.0       0.12146924647320062           0.8159146775168841 0.4011240706787726 1.0000   
         C         C         1.0       0.0971710569584884  0.8165796519132407  0.3944638126556043 1.0000   
         C         C         1.0       0.06956682535977873           0.7990528470576768 0.40722534654321824          1.0000   
         C         C         1.0       0.0652303670930475  0.7772762245880622  0.4259517791507533 1.0000   
         C         C         1.0       0.09007134233541382           0.7750242745000284 0.43169904589003955          1.0000   
         C         C         1.0       0.019527936340759666          0.7957946883506785 0.4228196902926324 1.0000   
         C         C         1.0       0.9873987279164427  0.778492395738899   0.42073001943523747          1.0000   
         C         C         1.0       0.9689873919451854  0.7788230441114875  0.44195610763632015          1.0000   
         C         C         1.0       0.9817601598709246  0.7976301408129328  0.46615076797283794          1.0000   
         C         C         1.0       0.012467573522395137          0.816299179263272  0.4664109313988363 1.0000   
         C         C         1.0       0.03160735653012914           0.8142137156335091 0.44614169299941864          1.0000   
         C         C         1.0       0.06751121316852893           0.8558620490048092 0.3932959994924492 1.0000   
         C         C         1.0       0.067860359200421   0.88033463032463    0.38726612350732037          1.0000   
         C         C         1.0       0.0452482596466528  0.8787215092322403  0.3716994154454138 1.0000   
         C         C         1.0       0.023708220826055504          0.8528811165347491 0.3602417224849146 1.0000   
         C         C         1.0       0.021728498761279136          0.8283071864860614 0.3683103332027337 1.0000   
         C         C         1.0       0.04377298423278542           0.8279392245551366 0.383800736080548  1.0000   
         H         H         1.0       0.03380510739668894           0.6866371364986774 0.2723237667709892 1.0000   
         H         H         1.0       0.07064517276440246           0.7362030088547168 0.34790493181623994          1.0000   
         H         H         1.0       0.11926128786456858           0.746886693440253  0.3371187167785444 1.0000   
         H         H         1.0       0.08472177069490795           0.6944703933125849 0.26216289854931313          1.0000   
         H         H         1.0       0.028287138290521874          0.6877565988393103 0.3697859190038856 1.0000   
         H         H         1.0       0.00843401727936377           0.6416645816946419 0.39337295855720433          1.0000   
         H         H         1.0       0.9535088866387509  0.5990477871645458  0.3203814939408318 1.0000   
         H         H         1.0       0.978192865049571   0.6440725671494849  0.2968667813131841 1.0000   
         H         H         1.0       0.04106809669008019           0.7595744023170826 0.3056728848277472 1.0000   
         H         H         1.0       0.05430941345891946           0.801090183763987  0.3370624406988832 1.0000   
         H         H         1.0       0.001202720626233722          0.7378442476821098 0.4034690010884061 1.0000   
         H         H         1.0       0.9839875914059418  0.6990776814324466  0.3714253865431876 1.0000   
         H         H         1.0       0.14191728473099186           0.83135137677519   0.3895978264057677 1.0000   
         H         H         1.0       0.10035386898320763           0.8330145050093983 0.3796891649286807 1.0000   
         H         H         1.0       0.041486480670914316          0.7606971221457839 0.43307379351227404          1.0000   
         H         H         1.0       0.08477738701529658           0.7545914955098088 0.44316022790325393          1.0000   
         H         H         1.0       0.9763039979161732  0.7635767466924437  0.40255236162094865          1.0000   
         H         H         1.0       0.9447956883620975  0.7625571771832994  0.4393579891129642 1.0000   
         H         H         1.0       0.021952859294912086          0.8320235949336684 0.4819634783845466 1.0000   
         H         H         1.0       0.05624352823299805           0.8271000736118674 0.4483049575009898 1.0000   
         H         H         1.0       0.08483890444746334           0.8579673542897915 0.40588015597512195          1.0000   
         H         H         1.0       0.084921370672004   0.900762035838622   0.3998600324750197 1.0000   
         H         H         1.0       0.003984038975793025          0.8495605650961249 0.3503488518679157 1.0000   
         H         H         1.0       0.004674902956154359          0.8080207390061289 0.36027028872070577          1.0000   
         C         C         1.0       0.342442754398228   0.8545425208283932  0.28559741131104155          1.0000   
         C         C         1.0       0.33990103466304333           0.8280461187695891 0.2876924729152431 1.0000   
         C         C         1.0       0.3153876262558883  0.80282822419886    0.27487432806314255          1.0000   
         C         C         1.0       0.29504927900698114           0.8051648422803318 0.25840700522966037          1.0000   
         C         C         1.0       0.2969299621281633  0.8317539172893798  0.2599533786646161 1.0000   
         C         C         1.0       0.32033498894129575           0.8560073080451542 0.27268358461522524          1.0000   
         H         H         1.0       0.3554442426767854  0.8242053105442692  0.3008347158434495 1.0000   
         H         H         1.0       0.3099100815798046  0.7824286126239167  0.28134874967934664          1.0000   
         H         H         1.0       0.2751103552192908  0.8296785137390909  0.25644931219088524          1.0000   
         H         H         1.0       0.3225379485067251  0.8765494609073202  0.27181713666925506          1.0000   
         C         C         1.0       0.23313988690302773           0.7754581258920807 0.2890309369171616 1.0000   
         C         C         1.0       0.23863768672891214           0.7601711372971355 0.2699163454820761 1.0000   
         C         C         1.0       0.21621516514095335           0.7304376734011823 0.2686584438780435 1.0000   
         C         C         1.0       0.18929679173264963           0.7174524284504485 0.28344201793961604          1.0000   
         C         C         1.0       0.18515519470307662           0.73406938940235   0.30239480674241437          1.0000   
         C         C         1.0       0.20847800096581126           0.7627095989705781 0.30752488572868225          1.0000   
         C         C         1.0       0.2651799484055077  0.775554987634242   0.2454738151947659 1.0000   
         C         C         1.0       0.27693189153329295           0.754552340325641  0.2344282754795001 1.0000   
         C         C         1.0       0.2911336958548769  0.7591074933591327  0.20754283710966692          1.0000   
         C         C         1.0       0.3028128522818618  0.7430602213219757  0.19776171515914426          1.0000   
         C         C         1.0       0.3031823398391509  0.723576572649751   0.21486974035280973          1.0000   
         C         C         1.0       0.2906914939358658  0.7191160013043609  0.24179285505404965          1.0000   
         C         C         1.0       0.2760326945523179  0.7321301824481407  0.2508458079967955 1.0000   
         C         C         1.0       0.22412758672912791           0.7601252854546553 0.20474537050778707          1.0000   
         C         C         1.0       0.21809206323634148           0.762779543892518  0.17666841237785136          1.0000   
         C         C         1.0       0.23411779807853814           0.7880710279637433 0.16140660886948355          1.0000   
         C         C         1.0       0.2600477550085023  0.8112483210091612  0.174318226539669  1.0000   
         C         C         1.0       0.2690328007648699  0.8081027532300528  0.20084160261828568          1.0000   
         C         C         1.0       0.2513646711407729  0.7824707536656828  0.21781728094313105          1.0000   
         C         C         1.0       0.2252346623663275  0.789134295362508   0.12881390251865826          1.0000   
         C         C         1.0       0.13115648333477517           0.7447873469788638 0.10208905392450729          1.0000   
         C         C         1.0       0.139273955932368   0.7541869570350597  0.13024307029765875          1.0000   
         C         C         1.0       0.1685605645370942  0.7667909959406287  0.139040387996364  1.0000   
         C         C         1.0       0.19084366754795076           0.7723676288011947 0.11911338640704904          1.0000   
         C         C         1.0       0.18403104556494554           0.7641278722065613 0.09050385500867311          1.0000   
         C         C         1.0       0.15331988857653528           0.7495276340427678 0.08263166020763885          1.0000   
         C         C         1.0       0.24352546516961146           0.7759338334889619 0.113875401168319  1.0000   
         C         C         1.0       0.2748355063519488  0.793059044383158   0.11016298851070204          1.0000   
         C         C         1.0       0.2910718939839723  0.7795692470378451  0.11042354929970742          1.0000   
         C         C         1.0       0.27627931432514546           0.7492975989676735 0.1091043323054745 1.0000   
         C         C         1.0       0.24547813383848271           0.7326572080693211 0.10795131260356779          1.0000   
         C         C         1.0       0.22961877121796395           0.745311583734173  0.10974888756461547          1.0000   
         C         C         1.0       0.2534977735378165  0.8362792547861678  0.09301795227457833          1.0000   
         C         C         1.0       0.2593160717737604  0.8633685918914282  0.08411745769407708          1.0000   
         C         C         1.0       0.250366500071523   0.877842568319775   0.10150492254878925          1.0000   
         C         C         1.0       0.2339871472905253  0.8649024727645584  0.12611785742135298          1.0000   
         C         C         1.0       0.2290596051313316  0.8385384840263803  0.13486191209505652          1.0000   
         C         C         1.0       0.2370441467533727  0.8224070811795438  0.1190348184150592 1.0000   
         H         H         1.0       0.24708218742555976           0.7997457722555468 0.2909207363472152 1.0000   
         H         H         1.0       0.22000092875658475           0.7160574144883497 0.2549599356152763 1.0000   
         H         H         1.0       0.17149957161160387           0.6949425325137418 0.2811683407617251 1.0000   
         H         H         1.0       0.20534777708304564           0.777005044200762  0.3210447333004787 1.0000   
         H         H         1.0       0.2940958189843605  0.7743805994665375  0.19200268378236712          1.0000   
         H         H         1.0       0.3137746729430929  0.7470512503509298  0.17613882442287113          1.0000   
         H         H         1.0       0.29193449440352676           0.7048429252343051 0.2581180511344742 1.0000   
         H         H         1.0       0.2675435607842422  0.7300124534293024  0.27248450739298724          1.0000   
         H         H         1.0       0.20916124931657    0.7407434117594982  0.2163876847310123 1.0000   
         H         H         1.0       0.19802459639783918           0.742750198779813  0.16971479388509658          1.0000   
         H         H         1.0       0.2752977888833935  0.8308187933011429  0.1645228554281661 1.0000   
         H         H         1.0       0.2907179673643465  0.8255507558351862  0.2058620867932656 1.0000   
         H         H         1.0       0.12170780232575534           0.751491690812817  0.14717605291485683          1.0000   
         H         H         1.0       0.17373156991831082           0.7733759538909375 0.16081745144164075          1.0000   
         H         H         1.0       0.20040972972522883           0.7658132556190813 0.073837754112915  1.0000   
         H         H         1.0       0.14909595309583315           0.7434424691339354 0.06074044920318369          1.0000   
         H         H         1.0       0.28726023901244113           0.8166304448383083 0.1161228358295659 1.0000   
         H         H         1.0       0.31503760701181527           0.7937146793734685 0.10889195214979935          1.0000   
         H         H         1.0       0.23313926786828437           0.7089580413351856 0.10908297690665916          1.0000   
         H         H         1.0       0.20570364813508604           0.7320210281966    0.11175301381340953          1.0000   
         H         H         1.0       0.2594183775080495  0.8234473874131831  0.07960841666596057          1.0000   
         H         H         1.0       0.2698914454813776  0.8729687967929559  0.06346798393287456          1.0000   
         H         H         1.0       0.22537457281619902           0.8754818292370552 0.13924165049379003          1.0000   
         H         H         1.0       0.21843560685521937           0.8306737250520976 0.15548762269365254          1.0000   
         C         C         1.0       0.3537975783164933  0.900865180709988   0.5891700845781052 1.0000   
         C         C         1.0       0.359462519154408   0.8862737986960846  0.5672012246777473 1.0000   
         C         C         1.0       0.337095139726298   0.8699339083395894  0.5475162824867689 1.0000   
         C         C         1.0       0.3093977632164428  0.8666048930488343  0.5492429422845299 1.0000   
         C         C         1.0       0.3065052960429298  0.8849442599476064  0.5684786612202489 1.0000   
         C         C         1.0       0.3274415884603407  0.9012941883486008  0.5886532124096875 1.0000   
         H         H         1.0       0.37972657538857024           0.8868834014197735 0.568194760122343  1.0000   
         H         H         1.0       0.3400823188483722  0.8565669951277218  0.5330150658003878 1.0000   
         H         H         1.0       0.2867306376120053  0.8855273792823444  0.5694013723817378 1.0000   
         H         H         1.0       0.32270786746269225           0.9123979931361382 0.6060439768921358 1.0000   
         C         C         1.0       0.2424787715499371  0.8247642910967599  0.5703103862715503 1.0000   
         C         C         1.0       0.24917613909141745           0.8323086257913541 0.5415620510253901 1.0000   
         C         C         1.0       0.22505450209364766           0.8256345565252038 0.5238615506131385 1.0000   
         C         C         1.0       0.1971710381347612  0.8150596004707775  0.5346220838947805 1.0000   
         C         C         1.0       0.1913280327713231  0.8070267050138643  0.5627158784392039 1.0000   
         C         C         1.0       0.21414400451198848           0.8123711894547496 0.5808843108391814 1.0000   
         C         C         1.0       0.2827096373579435  0.8442883143954728  0.52851223011698   1.0000   
         C         C         1.0       0.27772847480367274           0.812200713912104  0.525576503576207  1.0000   
         C         C         1.0       0.26805159139565876           0.794554665444192  0.5026975068668978 1.0000   
         C         C         1.0       0.26733086907353176           0.7692438223167937 0.4990669916558308 1.0000   
         C         C         1.0       0.2756564368649225  0.75940498257509    0.5217399228044951 1.0000   
         C         C         1.0       0.2831125882640577  0.7746877233606212  0.5480933662866034 1.0000   
         C         C         1.0       0.28558888637724816           0.8013041328482323 0.5482966369741226 1.0000   
         C         C         1.0       0.2833565587003207  0.8826464612599365  0.49515238756903   1.0000   
         C         C         1.0       0.286664147893253   0.8937259774267338  0.4678694206872919 1.0000   
         C         C         1.0       0.2967497608442996  0.8844381070669096  0.4454596673270778 1.0000   
         C         C         1.0       0.3121515761140543  0.8706512777696216  0.4524380951489041 1.0000   
         C         C         1.0       0.3119146406518177  0.8624054800371057  0.48060696928022806          1.0000   
         C         C         1.0       0.29240162460684865           0.8634296332886241 0.5010293462634292 1.0000   
         C         C         1.0       0.2910018441177709  0.8901313330626257  0.41353257484823086          1.0000   
         C         C         1.0       0.1957014468972603  0.8155661170749764  0.4057633053036829 1.0000   
         C         C         1.0       0.20408602518156582           0.8447389390389374 0.4092331521206091 1.0000   
         C         C         1.0       0.2336290229211099  0.8674713405627553  0.4120352017785387 1.0000   
         C         C         1.0       0.25621235718795266           0.8626353853499475 0.4125312859933731 1.0000   
         C         C         1.0       0.248731524594753   0.8333031346202628  0.4095371643963481 1.0000   
         C         C         1.0       0.21864791943718928           0.8093953597453588 0.40762698974891454          1.0000   
         C         C         1.0       0.3137893901684271  0.889302975470598   0.3903836210746969 1.0000   
         C         C         1.0       0.3455096450767847  0.906798561728131   0.3927910526052713 1.0000   
         C         C         1.0       0.3651173650748818  0.9046393221606468  0.37337002661929614          1.0000   
         C         C         1.0       0.35125922836901435           0.8848004813781344 0.3505241866902602 1.0000   
         C         C         1.0       0.3201706308301354  0.8699037713103972  0.34723390202696647          1.0000   
         C         C         1.0       0.3024088975252974  0.8738424138286072  0.36518746388832285          1.0000   
         C         C         1.0       0.2840798980713722  0.923320724004536   0.3795383081529723 1.0000   
         C         C         1.0       0.28488974103457304           0.9474068717127943 0.3712922251722899 1.0000   
         C         C         1.0       0.298512580996083   0.9718222896990213  0.3896125274934036 1.0000   
         C         C         1.0       0.3083816773276303  0.970528787538988   0.4153492681413543 1.0000   
         C         C         1.0       0.3067770815220483  0.9457844863751509  0.4246111858441373 1.0000   
         C         C         1.0       0.29529555106297645           0.9217407604328961 0.4051417500366791 1.0000   
         H         H         1.0       0.257308299710743   0.8258079544783524  0.5870783784606597 1.0000   
         H         H         1.0       0.22626309462572933           0.8271727419786391 0.5010601023391577 1.0000   
         H         H         1.0       0.17776005378170168           0.8107200933568187 0.5211592350781319 1.0000   
         H         H         1.0       0.21052926928767784           0.8029538852285713 0.6036293993476345 1.0000   
         H         H         1.0       0.2632426441060608  0.803728648909139   0.4838284549874499 1.0000   
         H         H         1.0       0.25771422528896076           0.7563917004645571 0.4792159681737607 1.0000   
         H         H         1.0       0.28553742066907306           0.7648735791449691 0.5674625192914228 1.0000   
         H         H         1.0       0.29261175300641445           0.8145928533659296 0.5686507124387257 1.0000   
         H         H         1.0       0.2726173796052681  0.8879031400213419  0.5115652761828424 1.0000   
         H         H         1.0       0.27816855905846616           0.9077238411538766 0.4639161268188389 1.0000   
         H         H         1.0       0.3203043803623494  0.8634972293223192  0.4362688853278057 1.0000   
         H         H         1.0       0.31998642767213126           0.8475393150419508 0.4849750597817013 1.0000   
         H         H         1.0       0.18665203087328325           0.8495396082087215 0.40821237348919376          1.0000   
         H         H         1.0       0.23902678925355775           0.8904743390824605 0.4132098138042993 1.0000   
         H         H         1.0       0.2679811664228663  0.8320607589377812  0.4065303765464567 1.0000   
         H         H         1.0       0.2136632367668558  0.7869743723972068  0.4044087517851878 1.0000   
         H         H         1.0       0.3528986026563139  0.918460399797991   0.41273837160161636          1.0000   
         H         H         1.0       0.3885487533149198  0.9193287818133677  0.37595448082539074          1.0000   
         H         H         1.0       0.3096649341516151  0.8537292800715772  0.3286875084843203 1.0000   
         H         H         1.0       0.278997748406743   0.8616517520265394  0.3637575987502642 1.0000   
         H         H         1.0       0.27076320399962495           0.9046655337756827 0.3657992326213495 1.0000   
         H         H         1.0       0.27116633309601024           0.9469856393650395 0.35463439654655204          1.0000   
         H         H         1.0       0.3203134469789785  0.9904636094807329  0.4274145284065756 1.0000   
         H         H         1.0       0.3166209600673221  0.9450605437088565  0.444509472374224  1.0000   
         C         C         1.0       0.4072192939919831  0.6225116915330985  0.09289158629568896          1.0000   
         C         C         1.0       0.40896882415696867           0.6446936860156237 0.1099324561898057 1.0000   
         C         C         1.0       0.3879571416098032  0.637790738613246   0.13037929650784227          1.0000   
         C         C         1.0       0.36396370389040444           0.6097680718554801 0.13557631709608267          1.0000   
         C         C         1.0       0.3637254452464925  0.5872016637486308  0.12226819457902509          1.0000   
         C         C         1.0       0.3836800167792325  0.5928217887628743  0.09951654198404801          1.0000   
         H         H         1.0       0.426173301444919   0.669212402353246   0.10582583108669393          1.0000   
         H         H         1.0       0.38910885669255535           0.6557558470968231 0.1418038925824514 1.0000   
         H         H         1.0       0.3465332425577062  0.5624824581237324  0.12392276297452631          1.0000   
         H         H         1.0       0.37851957421909554           0.5745249498951157 0.08526770949732547          1.0000   
         C         C         1.0       0.2976549603844462  0.5770269474584716  0.11677736940238684          1.0000   
         C         C         1.0       0.30541898913662685           0.5767006264751634 0.14557040473003313          1.0000   
         C         C         1.0       0.28227434559180176           0.5548914971897871 0.16272934832629699          1.0000   
         C         C         1.0       0.2531571057199371  0.5358892802782962  0.15289816826294067          1.0000   
         C         C         1.0       0.24675775550742424           0.5393416307505952 0.12552124563706651          1.0000   
         C         C         1.0       0.2697809771390106  0.5596375759868765  0.10636813717969253          1.0000   
         C         C         1.0       0.33703225623773697           0.6041022970374521 0.15618812000669477          1.0000   
         C         C         1.0       0.32730652264573407           0.6271051798901179 0.1598990548437802 1.0000   
         C         C         1.0       0.3094127674620587  0.6241557021623767  0.18400813432677265          1.0000   
         C         C         1.0       0.3033307957184416  0.6453120681075352  0.18917706382612332          1.0000   
         C         C         1.0       0.3115823529066337  0.6670941925557444  0.16949119531742263          1.0000   
         C         C         1.0       0.32734600476887704           0.6689130951851318 0.14499526252595504          1.0000   
         C         C         1.0       0.33420825528293346           0.6486754432237065 0.1394915313992385 1.0000   
         C         C         1.0       0.34289840033933555           0.5708941324127584 0.1924695136542598 1.0000   
         C         C         1.0       0.33835395456316425           0.5628892345252422 0.2210552350252773 1.0000   
         C         C         1.0       0.34073969895501854           0.5823055628099618 0.24165238573100728          1.0000   
         C         C         1.0       0.3573361262162913  0.6113824114838379  0.23396844194676306          1.0000   
         C         C         1.0       0.3617913174556435  0.6200397515313147  0.2054534929366251 1.0000   
         C         C         1.0       0.35031974977331565           0.5986282001216706 0.18475474598442926          1.0000   
         C         C         1.0       0.3235059280885805  0.5730449513409436  0.2718981539093218 1.0000   
         C         C         1.0       0.2431931317623674  0.5714702430497943  0.24110112230859398          1.0000   
         C         C         1.0       0.24540124346212977           0.5475388201972896 0.23830151427846397          1.0000   
         C         C         1.0       0.2699865250356655  0.5483340519572123  0.24742352621024552          1.0000   
         C         C         1.0       0.29318862692894887           0.5722933219935705 0.26256514701920003          1.0000   
         C         C         1.0       0.29062737420487206           0.5966808099341563 0.2651183019715002 1.0000   
         C         C         1.0       0.26624636331143486           0.5966057745861473 0.25401572739885186          1.0000   
         C         C         1.0       0.33983067845489234           0.597192135796499  0.2989746259685047 1.0000   
         C         C         1.0       0.3703502735823185  0.6147013259632386  0.3017715253369097 1.0000   
         C         C         1.0       0.38349001152887563           0.6371140073720211 0.32219713225853813          1.0000   
         C         C         1.0       0.36355529379152374           0.6380968495656877 0.3417575042860438 1.0000   
         C         C         1.0       0.3317749184179982  0.6178982793996466  0.3406134888712665 1.0000   
         C         C         1.0       0.3202663080192561  0.5970511692480223  0.31885515338750087          1.0000   
         C         C         1.0       0.28963313397775625           0.5181777701112331 0.29005451724568665          1.0000   
         C         C         1.0       0.2860750328369625  0.4907144862462521  0.2846896548424377 1.0000   
         C         C         1.0       0.3094881003098594  0.4871574875566023  0.28004454576182736          1.0000   
         C         C         1.0       0.3386341100470838  0.512681848399274   0.28111770494024274          1.0000   
         C         C         1.0       0.34420124718546546           0.5410665899953114 0.28476942315243714          1.0000   
         C         C         1.0       0.31872918683415363           0.5436922336143064 0.2846127873277205 1.0000   
         H         H         1.0       0.31399505085212825           0.5934312914641305 0.10354547213461837          1.0000   
         H         H         1.0       0.2860955125534994  0.5569019483786366  0.18533708408275776          1.0000   
         H         H         1.0       0.2358547397579874  0.5208130674827861  0.16901267212395069          1.0000   
         H         H         1.0       0.26554579602921335           0.56574839521066   0.08508635294425508          1.0000   
         H         H         1.0       0.3038290828424295  0.6084157463191063  0.2015386912459618 1.0000   
         H         H         1.0       0.2929276586681487  0.6453197812619297  0.20946113304929542          1.0000   
         H         H         1.0       0.3357069085965128  0.6840116272253388  0.1284669090308899 1.0000   
         H         H         1.0       0.3429504567649193  0.6485737174435535  0.11736096142921704          1.0000   
         H         H         1.0       0.33587674780662224           0.554735482885328  0.1768080000259495 1.0000   
         H         H         1.0       0.325894860932951   0.5374019328595566  0.22330061878142077          1.0000   
         H         H         1.0       0.35981593286030744           0.6285260561732106 0.24907712040487703          1.0000   
         H         H         1.0       0.3692567502222018  0.6421662830005552  0.19883244665733255          1.0000   
         H         H         1.0       0.22984663414805395           0.5291237113006041 0.22602391233276467          1.0000   
         H         H         1.0       0.2717757297782988  0.5292997060124021  0.2429293182884709 1.0000   
         H         H         1.0       0.3062466094513762  0.6177590677489927  0.27541541691236454          1.0000   
         H         H         1.0       0.2632884760557728  0.6140341960142537  0.2570196812612822 1.0000   
         H         H         1.0       0.38309721186407275           0.611302104157629  0.28698662283834564          1.0000   
         H         H         1.0       0.4081343220897101  0.6518595201192529  0.32137658976002176          1.0000   
         H         H         1.0       0.3164128974748517  0.6200418699958647  0.35390626569452266          1.0000   
         H         H         1.0       0.2961978625596581  0.5797536715013448  0.31688769335653233          1.0000   
         H         H         1.0       0.26969845664290515           0.518582627587173  0.2940642817483695 1.0000   
         H         H         1.0       0.26257022993718143           0.4727324283104339 0.28448844821031566          1.0000   
         H         H         1.0       0.35868959074798973           0.5129665845303352 0.2803499158344248 1.0000   
         H         H         1.0       0.3660210680308507  0.5610327298736438  0.2851543548561876 1.0000   
         C         C         1.0       0.3580273321469571  0.6435591021927289  0.41956047495054205          1.0000   
         C         C         1.0       0.362189131988615   0.6589867242314464  0.4437291322309985 1.0000   
         C         C         1.0       0.3399268667675479  0.6547134365868817  0.4631856116959504 1.0000   
         C         C         1.0       0.3097753334854735  0.6310059611871699  0.4580262487131029 1.0000   
         C         C         1.0       0.3042622753379749  0.6153772629972594  0.4342013768582525 1.0000   
         C         C         1.0       0.3287741162660742  0.619737140845984   0.41622864626166794          1.0000   
         H         H         1.0       0.3846730453780623  0.675564492115538   0.45139072461696333          1.0000   
         H         H         1.0       0.3475469388254899  0.668735812120294   0.48090553966679606          1.0000   
         H         H         1.0       0.28201783162325367           0.5973076838143481 0.42980456399907907          1.0000   
         H         H         1.0       0.3270292664561359  0.605267944272547   0.3985384028436941 1.0000   
         C         C         1.0       0.24587704849260306           0.6204544294869705 0.43889579004376955          1.0000   
         C         C         1.0       0.2517767816543299  0.615932296010817   0.4670818960971848 1.0000   
         C         C         1.0       0.2262960480884018  0.6033905833982258  0.4854794885301355 1.0000   
         C         C         1.0       0.19837973378693707           0.5958933221829432 0.47774370092478324          1.0000   
         C         C         1.0       0.19403276956543278           0.6027696897291943 0.45033016915005486          1.0000   
         C         C         1.0       0.21714655233540786           0.6139890916664831 0.43078056849757385          1.0000   
         C         C         1.0       0.28406060004495487           0.6260583508702353 0.4786003808107842 1.0000   
         C         C         1.0       0.29237456728882094           0.6563093870390997 0.49477210880375116          1.0000   
         C         C         1.0       0.2902154561684867  0.658868956275154   0.5242818608330969 1.0000   
         C         C         1.0       0.29581480820260564           0.6848733208649744 0.5351878378454803 1.0000   
         C         C         1.0       0.3051164086233608  0.7087786462030707  0.5169450241804139 1.0000   
         C         C         1.0       0.3051057552230306  0.7055801289281918  0.4874207365155813 1.0000   
         C         C         1.0       0.2988060931217688  0.6794500963976076  0.4772092188684733 1.0000   
         C         C         1.0       0.26345929833171033           0.5695599442787018 0.48611627150613224          1.0000   
         C         C         1.0       0.2621745697024804  0.5470979089388234  0.4994190150579162 1.0000   
         C         C         1.0       0.27580295615669004           0.5506234811644382 0.5245774614118796 1.0000   
         C         C         1.0       0.2914571287001937  0.5784682940718989  0.5359095665362592 1.0000   
         C         C         1.0       0.29280689810828014           0.6009747807641556 0.5223402493821228 1.0000   
         C         C         1.0       0.28021961083744484           0.5982015739190045 0.49645765905960654          1.0000   
         C         C         1.0       0.2726666113346128  0.5239158919268629  0.5403852906982453 1.0000   
         C         C         1.0       0.18667365903829986           0.49971202619870636          0.581894236171806  1.0000   
         C         C         1.0       0.18594628172610136           0.48651528717550463          0.5553845184039662 1.0000   
         C         C         1.0       0.2127245281758118  0.4926107282469003  0.5435559827373181 1.0000   
         C         C         1.0       0.2409445806206174  0.514205072803239   0.5553818509001376 1.0000   
         C         C         1.0       0.24039110512857445           0.5266384895335852 0.5811480278629533 1.0000   
         C         C         1.0       0.21411860795918153           0.5186824274892132 0.5947403211159027 1.0000   
         C         C         1.0       0.3045961453153399  0.5363586712356083  0.5570716400952903 1.0000   
         C         C         1.0       0.3324386985347042  0.5545379063026199  0.5420092023857228 1.0000   
         C         C         1.0       0.3761365710257687  0.5867737821030056  0.012830802523781548         1.0000   
         C         C         1.0       0.3817104537637657  0.6091239967437913  0.030546501775258413         1.0000   
         C         C         1.0       0.3573001569569981  0.6087946088071773  0.043359943541361856         1.0000   
         C         C         1.0       0.32905944538811394           0.5847998224809702 0.0400622215281905 1.0000   
         C         C         1.0       0.25038894172216236           0.46854726921244877          0.5272285771899534 1.0000   
         C         C         1.0       0.24879604401235703           0.4471647440326979 0.5106280352959266 1.0000   
         C         C         1.0       0.26727846039330605           0.4539014256378637 0.4863221087487917 1.0000   
         C         C         1.0       0.2841687311396199  0.48253020265752333           0.47729049390840256          1.0000   
         C         C         1.0       0.2865873461931372  0.504771131398878   0.4945868884035636 1.0000   
         C         C         1.0       0.2709172682274949  0.49868644739546164           0.5206869766813306 1.0000   
         H         H         1.0       0.26161801527038997           0.6297696142499791 0.42227058725578637          1.0000   
         H         H         1.0       0.22804802430708832           0.5989225649416084 0.5080707501244074 1.0000   
         H         H         1.0       0.1797505504139827  0.585277856318382   0.49220669453435223          1.0000   
         H         H         1.0       0.2126714546668842  0.6185778524478989  0.4102210588836385 1.0000   
         H         H         1.0       0.27939305584198026           0.6389960702204448 0.5380013039207134 1.0000   
         H         H         1.0       0.2899232203584345  0.6842104909240014  0.5580823068752618 1.0000   
         H         H         1.0       0.30699623657239034           0.7222855922693464 0.47158680159629934          1.0000   
         H         H         1.0       0.29718834173864916           0.6756495234189286 0.4532366083140393 1.0000   
         H         H         1.0       0.2526069221157884  0.5630001818121767  0.46633860498850516          1.0000   
         H         H         1.0       0.2502339170091057  0.5261074822261782  0.4877390200059434 1.0000   
         H         H         1.0       0.3029915993963243  0.5840999539464459  0.5559718476316468 1.0000   
         H         H         1.0       0.30470267195104456           0.6230053782001725 0.5314614825063495 1.0000   
         H         H         1.0       0.16408710433342913           0.4703615520045822 0.5452168192092743 1.0000   
         H         H         1.0       0.21187384350708865           0.4829789371368184 0.5226791165525417 1.0000   
         H         H         1.0       0.2611953279192972  0.5423255556665226  0.5913187848165415 1.0000   
         H         H         1.0       0.2437376940910541  0.5855263791240606  0.015005299182057506         1.0000   
         H         H         1.0       0.33183166650773915           0.5611925811279973 0.5202079270361667 1.0000   
         H         H         1.0       0.39351583238731225           0.5869921436606166 0.00032085453284769194       1.0000   
         H         H         1.0       0.3619280834864353  0.6267144584250678  0.05646488376986114          1.0000   
         H         H         1.0       0.3117899618630635  0.5853321790094947  0.052821985346219735         1.0000   
         H         H         1.0       0.23726167370800524           0.45975269200211105          0.5474642375127411 1.0000   
         H         H         1.0       0.2342295890739875  0.4252387855694971  0.5190968160202554 1.0000   
         H         H         1.0       0.29811195705163696           0.48883818651199507          0.4582594787970646 1.0000   
         H         H         1.0       0.3007837412876789  0.5272074549186452  0.48585193636593127          1.0000   
         C         C         1.0       0.3749020149400756  0.661952412455414   0.3647949010484777 1.0000   
         C         C         1.0       0.3814398898531417  0.6522528085036275  0.3941912678583502 1.0000   
         H         H         1.0       0.39574828187673083           0.6820973256840865 0.35538553155402336          1.0000   
         H         H         1.0       0.35750968107948655           0.667061180495932  0.36857485161923886          1.0000   
         H         H         1.0       0.3868262223705864  0.6355789351159344  0.3889905827100141 1.0000   
         H         H         1.0       0.40208069251923967           0.6746066816877975 0.40261563986776855          1.0000   
         C         C         1.0       0.42628016226148624           0.6322300563313166 0.06387180904154127          1.0000   
         C         C         1.0       0.4139878022869322  0.6376256756612013  0.03700316541404458          1.0000   
         H         H         1.0       0.4273402624972179  0.6126682337174381  0.05945444918400278          1.0000   
         H         H         1.0       0.45025337664285814           0.6496968046398318 0.06650760012087815          1.0000   
         H         H         1.0       0.4310105320047655  0.6399923157921212  0.020407941180047073         1.0000   
         H         H         1.0       0.4145228165920165  0.6584854507510711  0.04016062802865239          1.0000   
         C         C         1.0       0.3063645565777057  0.7351158645689971  0.5289175153147395 1.0000   
         C         C         1.0       0.2750049296752714  0.7306053004697319  0.5224487674616337 1.0000   
         H         H         1.0       0.3276224515763372  0.7561405845570501  0.520215298937611  1.0000   
         H         H         1.0       0.3081569331014534  0.7354664917417952  0.5525056345820862 1.0000   
         H         H         1.0       0.25737932139045505           0.7176118394310591 0.5386504853293316 1.0000   
         H         H         1.0       0.26348545079962954           0.7168599488453001 0.5040585722309336 1.0000   
         C         C         1.0       0.3692707428312651  0.8820073599685536  0.2988213058027634 1.0000   
         C         C         1.0       0.3740001203917858  0.8816909290104139  0.3315684529004473 1.0000   
         H         H         1.0       0.3705432610608387  0.901612731058608   0.2930000269446353 1.0000   
         H         H         1.0       0.38956605170294056           0.8852924229830815 0.28848658344535616          1.0000   
         H         H         1.0       0.39779516570512835           0.9011727824701355 0.3359866659530519 1.0000   
         H         H         1.0       0.3710372803991073  0.861300111592486   0.3389105907917129 1.0000   
         C         C         1.0       0.3742325140980235  0.9152559731231958  0.614668896985527  1.0000   
         C         C         1.0       0.29293691576246317           0.733328395032707  0.11378603391287116          1.0000   
         H         H         1.0       0.37146222300409326           0.9329559787434658 0.624048570119165  1.0000   
         H         H         1.0       0.39784511793924265           0.9277375891447891 0.6096329849628155 1.0000   
         H         H         1.0       0.31481805309452854           0.7509396200002171 0.12283094377205261          1.0000   
         H         H         1.0       0.2828783337672084  0.7161965674135816  0.13247011361742342          1.0000   
         C         C         1.0       0.3187140714252784  0.7072995573727954  0.2051504992106206 1.0000   
         C         C         1.0       0.3053468566551351  0.6920127747663506  0.1759087207160948 1.0000   
         H         H         1.0       0.34365778341451764           0.7207430831761934 0.2002689638690363 1.0000   
         H         H         1.0       0.31703471481244816           0.6923496199555619 0.22253087029552113          1.0000   
         H         H         1.0       0.3151609586717811  0.7080525934880939  0.15993991034778351          1.0000   
         H         H         1.0       0.27994994144066554           0.6824848955018301 0.17588980485238292          1.0000   
         C         C         1.0       0.15362264818301025           0.7244992206281434 0.3139536570367409 1.0000   
         C         C         1.0       0.13771400390886243           0.7285405259918669 0.2889605978745086 1.0000   
         H         H         1.0       0.14504825649981765           0.7020723750788636 0.32102645608575414          1.0000   
         H         H         1.0       0.1536184901922739  0.7348533608483372  0.3343322841990617 1.0000   
         H         H         1.0       0.15178656019703732           0.7512221889020569 0.28336601179318693          1.0000   
         H         H         1.0       0.13568829288341833           0.7149092767130943 0.2685857226934557 1.0000   
         C         C         1.0       0.14348703841779745           0.7928036790755737 0.4285588928670946 1.0000   
         C         C         1.0       0.16230452430075573           0.7899839130041759 0.40382687476818296          1.0000   
         H         H         1.0       0.15728842534885998           0.8135063388233138 0.44221885952162676          1.0000   
         H         H         1.0       0.13641436019380582           0.7761077763443662 0.4446078326817222 1.0000   
         H         H         1.0       0.15322686477770314           0.7856374522852597 0.38149098401178594          1.0000   
         H         H         1.0       0.16126453944478286           0.7695290876436148 0.4086634322085657 1.0000   
         C         C         1.0       0.9637105400430251  0.7990387450706189  0.4910770757374826 1.0000   
         C         C         1.0       0.9422326818044098  0.7685532990796708  0.5040404887042012 1.0000   
         H         H         1.0       0.9776224634467294  0.8172772392857007  0.5073347841971765 1.0000   
         H         H         1.0       0.9496800437869573  0.8056787806464492  0.48187939466719343          1.0000   
         H         H         1.0       0.9261549106276754  0.770336448531306   0.5181747153636725 1.0000   
         H         H         1.0       0.9270289337568675  0.7527406879230366  0.48826525272134946          1.0000   
         C         C         1.0       0.9315177933488805  0.6956050078425154  0.22721520327376304          1.0000   
         C         C         1.0       0.9146761980310504  0.665309621003396   0.20999263585031347          1.0000   
         H         H         1.0       0.9127572220288132  0.6961974808867556  0.2381774668054486 1.0000   
         H         H         1.0       0.9402694697030376  0.7144331475514939  0.21255954541414673          1.0000   
         H         H         1.0       0.920499723077682   0.6503623811051036  0.22035775803218702          1.0000   
         H         H         1.0       0.8906902233646895  0.6554586132161996  0.21705458808303615          1.0000   
         C         C         1.0       0.1445892133510384  0.8128374756543911  0.5652013692168626 1.0000   
         C         C         1.0       0.15927240401344916           0.7947405770810614 0.5717452841957985 1.0000   
         H         H         1.0       0.14994531545151382           0.8234470969369133 0.5431095918950255 1.0000   
         H         H         1.0       0.15601527777966445           0.8333483175891101 0.5784785410636183 1.0000   
         H         H         1.0       0.1565564752994075  0.7901196238461367  0.5953903970703789 1.0000   
         H         H         1.0       0.14667389667170166           0.7732646691420186 0.5599632300232082 1.0000   
         C         C         1.0       0.07885017468163638           0.6968413627187022 0.0967675681734872 1.0000   
         C         C         1.0       0.09987749464896245           0.7319143989329443 0.09240679881995778          1.0000   
         H         H         1.0       0.08447377286112    0.6911008309216606  0.11943472946851869          1.0000   
         H         H         1.0       0.08399031401016016           0.6843891158065787 0.08020000109525845          1.0000   
         H         H         1.0       0.09178687798734529           0.7427208894461983 0.10633106138345116          1.0000   
         H         H         1.0       0.10116630850830217           0.739450358441787  0.07001404365589928          1.0000   
         C         C         1.0       0.1500929760139343  0.614174742807196   0.44232801819572554          1.0000   
         C         C         1.0       0.16153461587501303           0.5923545668810137 0.44140305047438566          1.0000   
         H         H         1.0       0.14845657923765943           0.6203921364614522 0.4654869132013961 1.0000   
         H         H         1.0       0.1673572646740582  0.6352884906074922  0.43265266671728303          1.0000   
         H         H         1.0       0.1551118529900304  0.5787852092923172  0.4226909748964632 1.0000   
         H         H         1.0       0.14598894700890366           0.5766359376260376 0.4576980225644503 1.0000   
         C         C         1.0       0.1896643891367256  0.546203850728582   0.21632256961982863          1.0000   
         C         C         1.0       0.21839185115754292           0.5743163477754742 0.22789998766115982          1.0000   
         H         H         1.0       0.19719531495510817           0.5322424425249912 0.20683076593917565          1.0000   
         H         H         1.0       0.18134535083679815           0.5544772650377755 0.19923853277753528          1.0000   
         H         H         1.0       0.2108258824272341  0.5853931962005814  0.2426501934602838 1.0000   
         H         H         1.0       0.2282998526460227  0.5916508948424711  0.21047457878132686          1.0000   
         C         C         1.0       0.9603776046171575  0.5602914464130851  0.35669779255025236          1.0000   
         C         C         1.0       0.9614690131360204  0.5854381682193015  0.3747635238056231 1.0000   
         H         H         1.0       0.9570238803501924  0.5608613605879116  0.3334766454649471 1.0000   
         H         H         1.0       0.9379603269637772  0.5405879822904256  0.3638893332278702 1.0000   
         H         H         1.0       0.972762202306327   0.5862111576939993  0.39550332299164476          1.0000   
         H         H         1.0       0.9393542509468302  0.5797471298510095  0.38294420966081966          1.0000   
         C         C         1.0       0.21262666924543638           0.5211826365413357 0.11722245418758297          1.0000   
         C         C         1.0       0.19560553845280912           0.5327465416047555 0.13353136369768376          1.0000   
         H         H         1.0       0.20835879476269314           0.5207730195690606 0.09362749783583817          1.0000   
         H         H         1.0       0.2042764671173813  0.4985754902845685  0.12331014274622522          1.0000   
         H         H         1.0       0.20245033628102546           0.5376138441056177 0.15529589716415887          1.0000   
         H         H         1.0       0.20260136786598837           0.5544660150915843 0.12646842868224342          1.0000   
         C         C         1.0       0.13084437338044513           0.462587745982711  0.5969083121978066 1.0000   
         C         C         1.0       0.15779744606709128           0.49483603606368537          0.5922876113649224 1.0000   
         H         H         1.0       0.1266041132755271  0.45504524687723524           0.6190082966921139 1.0000   
         H         H         1.0       0.13438699742092097           0.44556582197479155          0.5867537960165103 1.0000   
         H         H         1.0       0.15150545128603446           0.5068999165765801 0.5782600338521354 1.0000   
         H         H         1.0       0.1607970485867223  0.5060728329851805  0.6134113155963957 1.0000   
         C         C         1.0       0.9855318095802102  0.40501450504258385           0.43943572376154394          1.0000   
         C         C         1.0       0.008890774817398306          0.40954513376732204          0.41609986973154744          1.0000   
         H         H         1.0       0.9684706887408145  0.4087896549340644  0.4296011360272136 1.0000   
         H         H         1.0       0.9714810605610756  0.38060341488671784           0.44373104595881097          1.0000   
         H         H         1.0       0.9971975189087402  0.3906336477425324  0.4005939583019074 1.0000   
         H         H         1.0       0.02667318616251224           0.4076543545055495 0.4273429174250443 1.0000   
         C         C         1.0       0.9916879855383728  0.3580788786717549  0.20054726746207718          1.0000   
         C         C         1.0       0.9865630040511141  0.36823028095914767           0.22897880638650764          1.0000   
         H         H         1.0       0.007340585484925333          0.35014447736555626          0.2037452395580969 1.0000   
         H         H         1.0       0.9685480206682245  0.33774800870169325           0.19415867611129603          1.0000   
         H         H         1.0       0.9738815501366007  0.3480123174097948  0.24190062099192008          1.0000   
         H         H         1.0       0.9687001545001729  0.37254431533207033           0.22602803299735014          1.0000   
         C         C         1.0       0.028053068182959606          0.5397015285108182 0.17887106665699068          1.0000   
         C         C         1.0       0.9939344398853467  0.5186481234118996  0.18266633634944715          1.0000   
         H         H         1.0       0.03724426438953854           0.5470097835263718 0.20106159027397635          1.0000   
         H         H         1.0       0.03562215984644901           0.5615802496046329 0.1709003426820566 1.0000   
         H         H         1.0       0.9913157505226713  0.4977249136000677  0.18660900592451363          1.0000   
         H         H         1.0       0.9864863807807284  0.521709818434251   0.20351475137961803          1.0000   
         C         C         1.0       0.6680586328767565  0.9027478870323701  0.4875259427304979 1.0000   
         C         C         1.0       0.6774954604879451  0.9162728260394767  0.517364994353278  1.0000   
         H         H         1.0       0.6570639643992371  0.9106647719655881  0.47504495760755405          1.0000   
         H         H         1.0       0.6515075223326476  0.8792638760654728  0.49179211574343407          1.0000   
         H         H         1.0       0.6585231814212559  0.9189243455252054  0.525002480158323  1.0000   
         H         H         1.0       0.697355186588923   0.9385083620663236  0.5135316907352234 1.0000   
         C         C         1.0       0.6614533444405366  0.884451743392897   0.18760678448906754          1.0000   
         C         C         1.0       0.6790353501190639  0.9103510409353495  0.20730345205838793          1.0000   
         H         H         1.0       0.6517791771412212  0.888575082200455   0.17072958240603447          1.0000   
         H         H         1.0       0.6415764034526527  0.8662170139639943  0.19885044984643924          1.0000   
         H         H         1.0       0.6658691825185082  0.9196891376562545  0.20912805303841253          1.0000   
         H         H         1.0       0.7003335036247449  0.9280395899518664  0.19462563910143435          1.0000   
         C         C         1.0       0.2855041249336175  0.4186198638864543  0.4909130814854735 1.0000   
         C         C         1.0       0.2690083562131371  0.4289058679744885  0.4725168780987247 1.0000   
         H         H         1.0       0.28248869912664454           0.40102904561688457          0.47703666256424837          1.0000   
         H         H         1.0       0.2718091337746796  0.40965018237181    0.510743744950312  1.0000   
         H         H         1.0       0.2805905346258211  0.4364265530053475  0.45060038578386336          1.0000   
         H         H         1.0       0.24542306021886223           0.4115524114165178 0.4688994973124312 1.0000   
         C         C         1.0       0.5822698595169831  0.7306654009274735  0.9504319972105273 1.0000   
         C         C         1.0       0.5891573662358128  0.7593153660137373  0.9642017250851259 1.0000   
         H         H         1.0       0.6020812841700632  0.7354257070440624  0.9379948009999168 1.0000   
         H         H         1.0       0.5649586420413385  0.7238597876528112  0.9318297131259909 1.0000   
         H         H         1.0       0.5695940640044019  0.7570637284443621  0.978744715901322  1.0000   
         H         H         1.0       0.5914603105738311  0.7741601480002229  0.9470303603637894 1.0000   
         C         C         1.0       0.30642234274402247           0.4507720877229455 0.23987704170073218          1.0000   
         C         C         1.0       0.29991129310394615           0.45520246788230845          0.2716432807031971 1.0000   
         H         H         1.0       0.30206478140022813           0.42911629769991977          0.24018139768747365          1.0000   
         H         H         1.0       0.2915544123320361  0.4501502447013574  0.2247216921041901 1.0000   
         H         H         1.0       0.31046141540908306           0.4470406014712873 0.28561553586369737          1.0000   
         H         H         1.0       0.2753767860658458  0.4395551507202205  0.2766182014411351 1.0000   
         C         C         1.0       0.37478411888926555           0.5836928744403204 0.4191759517370503 1.0000   
         C         C         1.0       0.366398489357925   0.5737357501233806  0.38783022186109684          1.0000   
         H         H         1.0       0.39294976718886276           0.607706732449712  0.4171691502247145 1.0000   
         H         H         1.0       0.35554117509002797           0.5825540943565    0.429672945837845  1.0000   
         H         H         1.0       0.3552154673515398  0.5837645980325797  0.3790851338712074 1.0000   
         H         H         1.0       0.3486584731256955  0.5491901115865663  0.38812765099790164          1.0000   
         C         C         1.0       0.48173958346414364           0.6569622533425373 0.15372002443494048          1.0000   
         C         C         1.0       0.5172432110753776  0.6801865652263887  0.14750393007493656          1.0000   
         H         H         1.0       0.4752684410150135  0.6628794843346872  0.1738646744257482 1.0000   
         H         H         1.0       0.4682325733473729  0.6611339993599273  0.13764704513592022          1.0000   
         H         H         1.0       0.5329849101901861  0.6807328449755539  0.16504520224506938          1.0000   
         H         H         1.0       0.5204790583140371  0.7021165268033525  0.1472357940589775 1.0000   
         C         C         1.0       0.5718926878461132  0.718148138211662   0.29166793604041347          1.0000   
         C         C         1.0       0.5823158882998115  0.7375270208615187  0.3176535672453081 1.0000   
         H         H         1.0       0.5903520202892781  0.7160080621742818  0.28281310075145266          1.0000   
         H         H         1.0       0.5667760677116184  0.7290417322997476  0.27495350941513735          1.0000   
         H         H         1.0       0.5848476184062642  0.725364946818662   0.3365328469978627 1.0000   
         H         H         1.0       0.562866989206813   0.7400704320845871  0.32532699103369384          1.0000   
         C         C         1.0       0.5538600048492068  0.5699674664965566  0.39269066433952754          1.0000   
         C         C         1.0       0.5193197087767273  0.5480483972838444  0.3911593970091007 1.0000   
         H         H         1.0       0.557369456686267   0.5843653781214503  0.41219878493170825          1.0000   
         H         H         1.0       0.5646507413613958  0.5851298358999135  0.37402718769051047          1.0000   
         H         H         1.0       0.5125479850447331  0.5270124864026987  0.38266567412946356          1.0000   
         H         H         1.0       0.509657334180193   0.5415205024364574  0.413164364650406  1.0000   
         C         C         1.0       0.5252230937565491  0.5304334270022765  0.4948588198702714 1.0000   
         C         C         1.0       0.5356057895270121  0.529738092541677   0.5245184241348839 1.0000   
         H         H         1.0       0.543188016212611   0.550933572125942   0.4843986270675119 1.0000   
         H         H         1.0       0.5195453215997501  0.5113561844263184  0.4810431836535203 1.0000   
         H         H         1.0       0.4899599923015648  0.45204696535906275           0.07940619398897156          1.0000   
         H         H         1.0       0.5201146097805721  0.48044240368961805           0.0959554552811779 1.0000   
         C         C         1.0       0.617830849285079   0.5923747142011437  0.06195746440401243          1.0000   
         C         C         1.0       0.6412810134767962  0.6135898759160526  0.08324142247247124          1.0000   
         H         H         1.0       0.6046868037777433  0.5693299500240966  0.06989723412303024          1.0000   
         H         H         1.0       0.630657321757171   0.5922055486289843  0.04086702512137652          1.0000   
         H         H         1.0       0.6617283301989156  0.6290953683790913  0.06921877672573665          1.0000   
         H         H         1.0       0.6377284065497376  0.6311465058417819  0.0921147899575932 1.0000   
         C         C         1.0       0.46463698250467494           0.4607404761191889 0.14291739194935893          1.0000   
         C         C         1.0       0.44981422805892834           0.4284704722125966 0.15507556147895502          1.0000   
         H         H         1.0       0.4907122758904482  0.47310306812705155           0.14336928058360077          1.0000   
         H         H         1.0       0.4595026272761239  0.4605160577142621  0.12126663230768245          1.0000   
         H         H         1.0       0.44247064967593785           0.41227296446232375          0.13603340112323437          1.0000   
         H         H         1.0       0.42907687959248264           0.4210166136816304 0.16810662629134565          1.0000   
         C         C         1.0       0.693865348621052   0.4648484571348128  0.12645011358801295          1.0000   
         C         C         1.0       0.6967852789696922  0.4768179459744743  0.15835841954400842          1.0000   
         H         H         1.0       0.7047799279243546  0.4520573284251946  0.12782997959692532          1.0000   
         H         H         1.0       0.7076851223979351  0.48377216776596893           0.11309922723984261          1.0000   
         H         H         1.0       0.7180951979772584  0.4842892947280511  0.16787279905599575          1.0000   
         H         H         1.0       0.6789837965517225  0.45811714001185894           0.17206541712043355          1.0000   
         C         C         1.0       0.5473078245159586  0.3783813089097859  0.3212099282495491 1.0000   
         C         C         1.0       0.5719880308849242  0.392334597501259   0.34345023326932317          1.0000   
         H         H         1.0       0.5241831258652117  0.36766010461115883           0.330997900484844  1.0000   
         H         H         1.0       0.5443200009278479  0.3572138233951841  0.3131183516736427 1.0000   
         H         H         1.0       0.5899257190447592  0.3891799886915495  0.3329999934407774 1.0000   
         H         H         1.0       0.5619805374953805  0.3775098717439064  0.36274884282311654          1.0000   
         C         C         1.0       0.02630088145463172           0.9103524717727876 0.39182790465042744          1.0000   
         C         C         1.0       0.04304940448800032           0.9062083880167415 0.36673055456729853          1.0000   
         H         H         1.0       0.026363962181023215          0.9303185496874931 0.3882014402700863 1.0000   
         H         H         1.0       0.0418988354118921  0.9164130119640225  0.4099520872732189 1.0000   
         H         H         1.0       0.029617496088544915          0.9038940385780884 0.34765073088606174          1.0000   
         H         H         1.0       0.06739950359208557           0.9256515128645024 0.3622862311211743 1.0000   
         C         C         1.0       0.7584490327243705  0.7691837955929233  0.5336866601696834 1.0000   
         C         C         1.0       0.7767392113338355  0.8034511170300244  0.5343560089247531 1.0000   
         H         H         1.0       0.7514193493113489  0.7640164674873655  0.555397678899279  1.0000   
         H         H         1.0       0.7373561089286023  0.7590857782529181  0.5214050610397652 1.0000   
         H         H         1.0       0.7801263667358977  0.810188456859765   0.510823665639949  1.0000   
         H         H         1.0       0.7999519925761764  0.8148406328438074  0.5419686881768244 1.0000   
         C         C         1.0       0.7964425413905789  0.8100843125537841  0.3851340784178009 1.0000   
         C         C         1.0       0.7827966112059745  0.8150039635177422  0.41285907577331604          1.0000   
         H         H         1.0       0.8049199151760641  0.8292711735241     0.37210371457763436          1.0000   
         H         H         1.0       0.7766481184891388  0.7914975055585628  0.37466658440733325          1.0000   
         H         H         1.0       0.7632179294305562  0.7938851099407405  0.41714033417188845          1.0000   
         H         H         1.0       0.7989398780395667  0.8217702141478697  0.4324703704755005 1.0000   
         C         C         1.0       0.722421749243006   0.6191125311882862  0.465665629327159  1.0000   
         C         C         1.0       0.725408666219362   0.5947722027365169  0.4515933037694065 1.0000   
         H         H         1.0       0.7096206700370666  0.6112922064870773  0.48798491983786146          1.0000   
         H         H         1.0       0.7083910779773277  0.6246752467880464  0.4529061305099162 1.0000   
         H         H         1.0       0.7322571232455424  0.584920043210216   0.4673495779209561 1.0000   
         H         H         1.0       0.7430997440431002  0.603053160942212   0.43472324086050057          1.0000   
         C         C         1.0       0.8866326924476298  0.6821297991121573  0.011438937632557655         1.0000   
         C         C         1.0       0.8752589131478776  0.70179366836381    0.02296490169813037          1.0000   
         H         H         1.0       0.8676833369306582  0.6617632753038224  0.9996781853271172 1.0000   
         H         H         1.0       0.9031129609211237  0.6940054355292702  0.9953411916113437 1.0000   
         H         H         1.0       0.8665282222117177  0.7082548324764254  0.005256820183618061         1.0000   
         H         H         1.0       0.8953576033310054  0.7246880158413772  0.030243628303346703         1.0000   
         C         C         1.0       0.7638885390127448  0.7960039655144668  0.25107900963114727          1.0000   
         C         C         1.0       0.7966921278661844  0.818646014627925   0.24195107532103433          1.0000   
         H         H         1.0       0.7621968456131945  0.779898185140041   0.2664890886443786 1.0000   
         H         H         1.0       0.7512939176065521  0.7822571580629358  0.23414470027424902          1.0000   
         H         H         1.0       0.7972714131284493  0.8321506171488882  0.22383658335283055          1.0000   
         H         H         1.0       0.8093624912271519  0.8345760354007605  0.2601674974062337 1.0000   
         C         C         1.0       0.7064630556008249  0.70288330511578    0.14247975846754216          1.0000   
         C         C         1.0       0.7099830823029257  0.7189051986306179  0.17144758103251506          1.0000   
         H         H         1.0       0.6836134380753285  0.6820861920286558  0.14201337710139067          1.0000   
         H         H         1.0       0.7060594110103848  0.7164784832620321  0.12516017224091   1.0000   
         H         H         1.0       0.7315268693174829  0.7235569032259085  0.18107256385047735          1.0000   
         H         H         1.0       0.690264721207579   0.7034112082684479  0.18589137052866958          1.0000   
         C         C         1.0       0.9194521712945414  0.7300205655931423  0.5921863482998884 1.0000   
         C         C         1.0       0.7548688867494728  0.5476480738592319  0.10245029543426788          1.0000   
         H         H         1.0       0.7981143607590417  0.561704678609917   0.07708945809462174          1.0000   
         H         H         1.0       0.9382937880073583  0.7301204460240703  0.5812717912112813 1.0000   
         H         H         1.0       0.7603269791694907  0.5383173925278575  0.12035474797773274          1.0000   
         H         H         1.0       0.7294194084583896  0.5326600620370143  0.09857546752135708          1.0000   
         C         C         1.0       0.9436612191819337  0.7619833096901673  0.2816299998490986 1.0000   
         C         C         1.0       0.9591090597174703  0.7895803915897441  0.2999426078801546 1.0000   
         H         H         1.0       0.9385037045714891  0.7439911332211869  0.296757777708154  1.0000   
         H         H         1.0       0.9600263195143258  0.7649836331377969  0.26491487582287115          1.0000   
         H         H         1.0       0.9654755666855319  0.8094689301276129  0.2888846032533081 1.0000   
         H         H         1.0       0.9814282900222515  0.7939384540327377  0.305512490489707  1.0000   
         C         C         1.0       0.6983903873950275  0.6253287693766996  0.28537343029913526          1.0000   
         C         C         1.0       0.7090218361280435  0.6585769337624465  0.28635688749594845          1.0000   
         H         H         1.0       0.6813851931657048  0.6119186930692159  0.3010271505487949 1.0000   
         H         H         1.0       0.7185577864415993  0.6246144230145882  0.2916753692470737 1.0000   
         H         H         1.0       0.7061279842062735  0.6631816750967614  0.309857146067246  1.0000   
         H         H         1.0       0.6943003340096174  0.663346398780614   0.275157185345733  1.0000   
         C         C         1.0       0.32879761523042156           0.025065482677600226         0.3639558019440311 1.0000   
         C         C         1.0       0.29872075822335636           0.0008550950617358666        0.38233878290780643          1.0000   
         H         H         1.0       0.3309610971281503  0.018003720710030535         0.34218765672645296          1.0000   
         H         H         1.0       0.32869658539329955           0.04506122262544632          0.3619042366776535 1.0000   
         H         H         1.0       0.27922833755094906           0.9942068457455178 0.36679736376991273          1.0000   
         H         H         1.0       0.2925475804775525  0.009453232866457162         0.4011407946345219 1.0000   
         C         C         1.0       0.26201436409678147           0.9312993633885949 0.11254996064519839          1.0000   
         C         C         1.0       0.2563271936058997  0.9066734667028423  0.09014669551590611          1.0000   
         H         H         1.0       0.24503141286069388           0.9206499297096228 0.13040879952066636          1.0000   
         H         H         1.0       0.2566039466631784  0.9461289160545625  0.10262883128398015          1.0000   
         H         H         1.0       0.23544795879525174           0.9001394179710991 0.07767725559517778          1.0000   
         H         H         1.0       0.2730264617846376  0.9161419468930071  0.073664517083274  1.0000   
         C         C         1.0       0.3493128745282547  0.9539815808500755  0.5282276070306376 1.0000   
         C         C         1.0       0.38373727713274725           0.8733482789513292 0.10174079882649383          1.0000   
         H         H         1.0       0.32220595598157953           0.9385492126496097 0.5278700950533557 1.0000   
         H         H         1.0       0.35685788341329405           0.9375648505116186 0.5275411142757414 1.0000   
         H         H         1.0       0.3866963756596527  0.859863940109144   0.1169340958394359 1.0000   
         H         H         1.0       0.3832212987142174  0.8659964143713345  0.07949939543325721          1.0000   
         C         C         1.0       0.36621773332468    0.9566973768871911  0.27776879215808187          1.0000   
         C         C         1.0       0.3786862634219769  0.9749640311989151  0.30514022007353186          1.0000   
         H         H         1.0       0.3413295508597726  0.9441690303936817  0.28127793807995227          1.0000   
         H         H         1.0       0.37330688070506096           0.9403155935758962 0.2796370209727938 1.0000   
         H         H         1.0       0.3649773526848954  0.96207718279878    0.3239399960709019 1.0000   
         H         H         1.0       0.3742108073289724  0.992385897562305   0.30656477689332734          1.0000   
         C         C         1.0       0.8747936022363356  0.028039028314866155         0.4229702938149584 1.0000   
         C         C         1.0       0.8753543455961594  0.053721954199934974         0.4375103230704948 1.0000   
         H         H         1.0       0.8862162984966825  0.035177534108194575         0.4017085539462964 1.0000   
         H         H         1.0       0.889322929007411   0.024288420395616406         0.43482561547589976          1.0000   
         H         H         1.0       0.8999534872635109  0.0722346854994893  0.44075467010589037          1.0000   
         H         H         1.0       0.8672645853133696  0.04531853326535962           0.46021114280804304          1.0000   
         C         C         1.0       0.5694729412445174  0.9600117453162978  0.38675066421610454          1.0000   
         C         C         1.0       0.5370403515358165  0.9493294240555497  0.3932125069570395 1.0000   
         H         H         1.0       0.5736623875741548  0.9643262816393526  0.36243718716322787          1.0000   
         H         H         1.0       0.5722794018114394  0.9413545006590178  0.38776311796376167          1.0000   
         H         H         1.0       0.5324098028085736  0.9480855324624926  0.4154049833839616 1.0000   
         H         H         1.0       0.520907586795617   0.9268227939126896  0.3841120268561696 1.0000   
         C         C         1.0       0.8495268902735943  0.9415154152713753  0.16881895995849733          1.0000   
         C         C         1.0       0.844306334428461   0.9643775567569952  0.18473448403892964          1.0000   
         H         H         1.0       0.8635104984754145  0.9528152125445997  0.14892515839766962          1.0000   
         H         H         1.0       0.8649630454341122  0.9365235404006796  0.1825002293893696 1.0000   
         H         H         1.0       0.8673020913943326  0.98539661547402    0.18970251023903886          1.0000   
         H         H         1.0       0.830757156193129   0.953851450386226   0.20455913921435318          1.0000   
         C         C         1.0       0.7086252678667456  0.9908472912960238  0.5629706913629691 1.0000   
         C         C         1.0       0.7277166136603859  0.005009268664003974         0.5339188100689358 1.0000   
         H         H         1.0       0.7060263422460401  0.9696641685646531  0.5648017050077127 1.0000   
         H         H         1.0       0.6837045280783616  0.9837902905585914  0.5622698002901152 1.0000   
         H         H         1.0       0.7316962543379257  0.9893678671697737  0.5237663004922583 1.0000   
         H         H         1.0       0.7510263822683603  0.025253904101270264         0.5377871776457956 1.0000   
         C         C         1.0       0.6967841536028558  0.9567169693748052  0.3051423104495915 1.0000   
         C         C         1.0       0.7266272932734925  0.956458184441442   0.30584214320031444          1.0000   
         H         H         1.0       0.6758521746000322  0.934000003949379   0.3032826806672521 1.0000   
         H         H         1.0       0.6931819262127243  0.9661955143610459  0.3252760873577227 1.0000   
         H         H         1.0       0.7384856960792315  0.9594695322825265  0.28517566475572237          1.0000   
         H         H         1.0       0.7206449884682442  0.9354051565969622  0.31407253915677363          1.0000   
         C         C         1.0       0.5996501217864599  0.03496551207389875           0.1765135613326183 1.0000   
         C         C         1.0       0.5995558447022481  0.050917177631668586         0.14867535165880172          1.0000   
         H         H         1.0       0.5781775139058126  0.010082066434759618         0.17603083682301793          1.0000   
         H         H         1.0       0.593321237273396   0.044163817829720786         0.19494407078012377          1.0000   
         H         H         1.0       0.6111832790452202  0.04694070365233771           0.13020555285033342          1.0000   
         H         H         1.0       0.6120625207134185  0.07640679909377956           0.1499878467198507 1.0000   
         C         C         1.0       0.9224229276108463  0.4004711647414882  0.6462230950001081 1.0000   
         C         C         1.0       0.92694204796734    0.4289376801763154  0.6334919479257365 1.0000   
         H         H         1.0       0.0013737267423510335         0.2710888013943807 0.9536506915174835 1.0000   
         H         H         1.0       0.9395238298063706  0.39628519963877157           0.6366119257769388 1.0000   
         H         H         1.0       0.9291326614622448  0.4422130301793955  0.6530817532183019 1.0000   
         H         H         1.0       0.9070794370040709  0.4257358469347423  0.6208405436401161 1.0000   
         C         C         1.0       0.6907397224418256  0.15786951791153522           0.4662937619964181 1.0000   
         C         C         1.0       0.6832820601994404  0.17607762248401976           0.4468896359234408 1.0000   
         H         H         1.0       0.6804574412031279  0.1561079279400831  0.48851558529422345          1.0000   
         H         H         1.0       0.7149961221213608  0.17058292463857694           0.47144208422528167          1.0000   
         H         H         1.0       0.6884447521296906  0.17241685341540164           0.4238386796796645 1.0000   
         H         H         1.0       0.6580121777403241  0.1655741613689391  0.44700639399934483          1.0000   
         C         C         1.0       0.8635469598109664  0.15057897332600337           0.09287485667626812          1.0000   
         C         C         1.0       0.8304107525542673  0.13414622655166508           0.1060674144897408 1.0000   
         H         H         1.0       0.8642202970916038  0.13576670374867453           0.07871319937886533          1.0000   
         H         H         1.0       0.877986315328145   0.1552361586460536  0.1105228950271229 1.0000   
         H         H         1.0       0.8476838312562943  0.20058302917828744           0.6557347797276553 1.0000   
         H         H         1.0       0.8153864158421263  0.13640404807936457           0.09002020511941099          1.0000   
         C         C         1.0       0.04989496011626904           0.3482236911971236 0.3549403196152022 1.0000   
         C         C         1.0       0.07427815227867374           0.37927869103693457          0.3667264782554517 1.0000   
         H         H         1.0       0.05602673010969994           0.3442972271979291 0.3334191055843499 1.0000   
         H         H         1.0       0.050937147676069605          0.33202500309625976          0.36917779922444544          1.0000   
         H         H         1.0       0.09349868811873918           0.37836491469493344          0.3689620667225539 1.0000   
         H         H         1.0       0.06868945751559785           0.3806015678912912 0.38839631676522   1.0000   
         C         C         1.0       0.7780330550305949  0.1641481488017322  0.21600458318318985          1.0000   
         C         C         1.0       0.8095482951843953  0.17974978144707857           0.20016764907191598          1.0000   
         H         H         1.0       0.7795275940341709  0.16974414653915137           0.24008561983423865          1.0000   
         H         H         1.0       0.7663563394187493  0.17467939243314107           0.20822605564766017          1.0000   
         H         H         1.0       0.8098949562859984  0.17645024907917764           0.17733714890522898          1.0000   
         H         H         1.0       0.8234094061401587  0.1706643332685338  0.20968914418609838          1.0000   
         C         C         1.0       0.8217365819479336  0.19391195760091995           0.33714934777225736          1.0000   
         C         C         1.0       0.8196438685445985  0.17338569026284092           0.3137579091239967 1.0000   
         H         H         1.0       0.8234051331342853  0.1851425640019557  0.3578452471715615 1.0000   
         H         H         1.0       0.8022134972796146  0.19467789694834822           0.3417738286130185 1.0000   
         H         H         1.0       0.8421999062265747  0.1822572736658141  0.30612045967095053          1.0000   
         H         H         1.0       0.8048246637122574  0.17085487091846258           0.2968697868851488 1.0000   
         C         C         1.0       0.8980210814900202  0.3803717148003815  0.4232324633861315 1.0000   
         C         C         1.0       0.8922616160732652  0.3703512795170686  0.45405066503312846          1.0000   
         H         H         1.0       0.915156248819653   0.4034082876595741  0.42680338468024626          1.0000   
         H         H         1.0       0.8783245681405693  0.381954273314986   0.41387356350794763          1.0000   
         H         H         1.0       0.9067666667021836  0.3608632287884957  0.46141541873656944          1.0000   
         H         H         1.0       0.9021281519325015  0.3909992948453381  0.46598504968675536          1.0000   
         C         C         1.0       0.9455347252194484  0.37708610252703395           0.12372559349167463          1.0000   
         C         C         1.0       0.9284644263284666  0.36992227499684815           0.09467799031965113          1.0000   
         H         H         1.0       0.9571360612851991  0.40238143122143044           0.12889098288039663          1.0000   
         H         H         1.0       0.9639993582115691  0.37387442502769364           0.12323866566277226          1.0000   
         H         H         1.0       0.9411541130291459  0.39005729688412755           0.08062826470761751          1.0000   
         H         H         1.0       0.9083051582654827  0.368982537790702   0.09739278817586738          1.0000   
         C         C         1.0       0.4130325805920789  0.2916425516066004  0.5245660439754203 1.0000   
         C         C         1.0       0.5054978776150443  0.2907810237825568  0.12870742405381827          1.0000   
         H         H         1.0       0.4114090201142114  0.2963776535619612  0.5018188152086374 1.0000   
         H         H         1.0       0.46854187776380746           0.24554678979146907          0.13348616190696608          1.0000   
         H         H         1.0       0.49603276675886804           0.29398337887589915          0.14760476835362432          1.0000   
         H         H         1.0       0.5230804139020039  0.2887188563230943  0.1359573455886466 1.0000   
         C         C         1.0       0.4347276480928879  0.11973522851984124           0.5407057826219256 1.0000   
         C         C         1.0       0.4662205553469046  0.12622572525628173           0.5324386445939081 1.0000   
         H         H         1.0       0.43219764685854983           0.11412079116385497          0.5646708307873278 1.0000   
         H         H         1.0       0.41606433981542573           0.10097138502049442          0.52920592266316   1.0000   
         H         H         1.0       0.4724934979403847  0.11877281909859688           0.5520110273363095 1.0000   
         H         H         1.0       0.4843092960895939  0.1508580207968811  0.5326167260906036 1.0000   
         C         C         1.0       0.5678400868690723  0.07484595656046222           0.9891437658681166 1.0000   
         C         C         1.0       0.53222675675188    0.05394966004340529           0.9844569849535031 1.0000   
         H         H         1.0       0.5799201928508565  0.07445860497507995           0.9689272906486021 1.0000   
         H         H         1.0       0.5747813595287514  0.0632391205153906  0.002715849717863872         1.0000   
         H         H         1.0       0.5222885739712712  0.06575447041107596           0.9744973193021975 1.0000   
         H         H         1.0       0.6011160955416609  0.16522040289837037           0.5955350380872658 1.0000   
         C         C         1.0       0.6921614784169048  0.3493481394469332  0.4775321097833507 1.0000   
         C         C         1.0       0.6572188363117275  0.3290291938744045  0.4790438113167986 1.0000   
         H         H         1.0       0.7009126311976884  0.3673869361783169  0.49210360270782133          1.0000   
         H         H         1.0       0.6970155486158082  0.3597745189796872  0.45464775872891655          1.0000   
         H         H         1.0       0.6522908090870769  0.30845236357635286           0.46756738976406714          1.0000   
         H         H         1.0       0.6448829373113509  0.33550635784058497           0.46522812442862543          1.0000   
         C         C         1.0       0.5908469356899209  0.33846149121000424           0.14938943055426523          1.0000   
         C         C         1.0       0.5991085934080828  0.3567363804334432  0.17619297865340872          1.0000   
         H         H         1.0       0.5682985834077366  0.3332579838548678  0.14214555249266525          1.0000   
         H         H         1.0       0.6098827667589946  0.3535467602811468  0.13302730818233333          1.0000   
         H         H         1.0       0.6236248998959832  0.3690162912442338  0.18131552646972351          1.0000   
         H         H         1.0       0.5867773265823404  0.34255098058350625           0.1953889745631039 1.0000   
         C         C         1.0       0.4473364373554604  0.15677527042496234           0.13810768189975905          1.0000   
         C         C         1.0       0.41895547160143565           0.1338968876554908 0.15357726671462762          1.0000   
         H         H         1.0       0.4457010442591011  0.1765076013341329  0.13803853382681638          1.0000   
         H         H         1.0       0.4464933897379263  0.15035726798213686           0.11480435506310793          1.0000   
         H         H         1.0       0.4172664762192572  0.14043734542952377           0.17596760447797863          1.0000   
         H         H         1.0       0.39864406716429296           0.1310258981095935 0.14458766490086467          1.0000   
         C         C         1.0       0.6168260585754605  0.11059661599807817           0.2991710780032595 1.0000   
         C         C         1.0       0.6404179747144482  0.14149471588071041           0.3117397889610175 1.0000   
         H         H         1.0       0.6271007602956268  0.09794522682432755           0.29662363448883106          1.0000   
         H         H         1.0       0.6106295804161449  0.11376292755476701           0.27759237655508856          1.0000   
         H         H         1.0       0.6648010184176617  0.14984001093968158           0.30541541718679105          1.0000   
         H         H         1.0       0.6426462899281298  0.13839462161065114           0.33586547645376624          1.0000   
         C         C         1.0       0.5519635545127807  0.2555800094612004  0.39283234266207545          1.0000   
         C         C         1.0       0.5690858999392184  0.26915742244946234           0.4214427386645545 1.0000   
         H         H         1.0       0.5312456722890034  0.23348297784100858           0.396030804542618  1.0000   
         H         H         1.0       0.5448862206696372  0.26969363011367387           0.3853725422800876 1.0000   
         H         H         1.0       0.5850702832541393  0.2928862839094894  0.4189207807129006 1.0000   
         H         H         1.0       0.5829829412802668  0.2596341488979118  0.4263808453146005 1.0000   
         C         C         1.0       0.668412188213561   0.21484990024395925           0.1604875128403086 1.0000   
         C         C         1.0       0.6836058348933348  0.23495216420837464           0.1341870698247643 1.0000   
         H         H         1.0       0.6851811685532536  0.22145874476125998           0.17876805412375107          1.0000   
         H         H         1.0       0.6609288999289564  0.19208170092257096           0.15765492003442755          1.0000   
         H         H         1.0       0.6901433352890245  0.2574885082347275  0.1392062509260272 1.0000   
         H         H         1.0       0.7046917702365796  0.23610887418813697           0.1300922495857856 1.0000   
         C         C         1.0       0.7473495903674338  0.30892759076226517           0.2717380509100998 1.0000   
         C         C         1.0       0.7532122615960624  0.2858356783705024  0.26118447769821135          1.0000   
         H         H         1.0       0.7565000670495495  0.3268704923738579  0.2548058387664289 1.0000   
         H         H         1.0       0.7619612782225758  0.3200160235612485  0.2902938606935757 1.0000   
         H         H         1.0       0.7390808525028693  0.2735455400191375  0.2424369280743098 1.0000   
         H         H         1.0       0.7462535427371163  0.2697494664619651  0.27991626629714567          1.0000   
         C         C         1.0       0.5468178890784411  0.26895954628097596           0.905911036579855  1.0000   
         C         C         1.0       0.5753410357843437  0.2741391187951826  0.9052219598577016 1.0000   
         C         C         1.0       0.5792788717973201  0.25401464743844226           0.891172255490175  1.0000   
         C         C         1.0       0.5538631076378782  0.2263334409482292  0.884275550319665  1.0000   
         C         C         1.0       0.5258317559364826  0.22205588281994915           0.8856236047150422 1.0000   
         C         C         1.0       0.5222086107590808  0.24382984322598364           0.8944580674732365 1.0000   
         H         H         1.0       0.5955636880124386  0.29448497675447716           0.9114486878469436 1.0000   
         H         H         1.0       0.6019760969577826  0.2585522553305081  0.8910851417688622 1.0000   
         H         H         1.0       0.507239787397832   0.2022779670116455  0.8766294600568226 1.0000   
         H         H         1.0       0.4992153629454795  0.24141713830188283           0.8914772142778981 1.0000   
         C         C         1.0       0.5214058186956712  0.1636658211445329  0.9162232353019019 1.0000   
         C         C         1.0       0.5313640043437675  0.16749074205121242           0.8877731227873484 1.0000   
         C         C         1.0       0.5218279424977184  0.1432632252126923  0.8705733075877784 1.0000   
         C         C         1.0       0.49931497075616244           0.11598402498674178          0.8791237463758717 1.0000   
         C         C         1.0       0.4891308007221154  0.11036685362893199           0.9077306361978004 1.0000   
         C         C         1.0       0.49902687202761853           0.13427457242914603          0.9259362493214883 1.0000   
         C         C         1.0       0.5571525059314532  0.2001631291539125  0.8745433554825905 1.0000   
         C         C         1.0       0.5861438166516225  0.20224866676097852           0.8856612220988868 1.0000   
         C         C         1.0       0.5960802240221332  0.18692639526968033           0.8704185968167911 1.0000   
         C         C         1.0       0.619078384779634   0.18420610600890439           0.879757132757379  1.0000   
         C         C         1.0       0.6320953676147442  0.19589473190435513           0.9065390138333902 1.0000   
         C         C         1.0       0.6209008680116896  0.20860626198428817           0.9235124556272054 1.0000   
         C         C         1.0       0.5982993328151945  0.2117862311295887  0.9133095433279625 1.0000   
         C         C         1.0       0.5300559823632279  0.19113236853351726           0.8265111053017898 1.0000   
         C         C         1.0       0.5304830942981849  0.1992269277034644  0.7979559991508836 1.0000   
         C         C         1.0       0.5567486942657874  0.22091848264910774           0.783961823279994  1.0000   
         C         C         1.0       0.5835705472505603  0.232513339065255   0.7984857922889317 1.0000   
         C         C         1.0       0.5837667305758711  0.2258269615121199  0.8266417698056826 1.0000   
         C         C         1.0       0.5567692529667306  0.20571774289198266           0.8410732966510736 1.0000   
         C         C         1.0       0.5570698308103217  0.22933101348035598           0.7511395536321431 1.0000   
         C         C         1.0       0.5572307983223201  0.15190071876353445           0.7223827520416357 1.0000   
         C         C         1.0       0.531637945737452   0.15338292675429055           0.7197020749330469 1.0000   
         C         C         1.0       0.5316213168844309  0.17768199668314602           0.7270571881736356 1.0000   
         C         C         1.0       0.5583301788828452  0.2028245245407775  0.7371908556525306 1.0000   
         C         C         1.0       0.5836401896346151  0.20145471989983213           0.7394709642285245 1.0000   
         C         C         1.0       0.5826699708120813  0.17547715791446658           0.7330534800833245 1.0000   
         C         C         1.0       0.5837686507718401  0.26171637603646036           0.7444291448142618 1.0000   
         C         C         1.0       0.5890086546116224  0.28598664370779775           0.7604550100905797 1.0000   
         C         C         1.0       0.6095209770983706  0.3144998328294411  0.7524972663275825 1.0000   
         C         C         1.0       0.6251670402793161  0.32000051901597676           0.7268237181888685 1.0000   
         C         C         1.0       0.6220589291216478  0.29750242601849286           0.7100376449901188 1.0000   
         C         C         1.0       0.6004131849493435  0.26802539156791205           0.7188052531106742 1.0000   
         C         C         1.0       0.5182506049704392  0.22896621627269176           0.7185581113827582 1.0000   
         C         C         1.0       0.4932383021480647  0.23024591432547892           0.7143217803292171 1.0000   
         C         C         1.0       0.4780337624984753  0.23490217863963397           0.7365068503855836 1.0000   
         C         C         1.0       0.48919014429826374           0.2384757362608727 0.7637044611866818 1.0000   
         C         C         1.0       0.5143151930435076  0.23784473695989747           0.7690972893116186 1.0000   
         C         C         1.0       0.5274437867157128  0.23027681598550312           0.7461023115527443 1.0000   
         H         H         1.0       0.5330404169898472  0.18290223133099173           0.9297574643250057 1.0000   
         H         H         1.0       0.5312514235309472  0.14621248600572717           0.8498412606344945 1.0000   
         H         H         1.0       0.4928581502052337  0.09789892212240908           0.8637495778761838 1.0000   
         H         H         1.0       0.49289822480932916           0.13189378083025644          0.9478177942630137 1.0000   
         H         H         1.0       0.5835727976227679  0.17782571300298727           0.8511873758104465 1.0000   
         H         H         1.0       0.6291942779007113  0.17357501852948862           0.8710507883625879 1.0000   
         H         H         1.0       0.6288752001021575  0.21687598134392921           0.944732791949373  1.0000   
         H         H         1.0       0.5866593677423397  0.22032557125123295           0.9257862558533391 1.0000   
         H         H         1.0       0.5087141337162762  0.17846919342970843           0.8359959187368887 1.0000   
         H         H         1.0       0.5083235128775796  0.1862253000354287  0.7862371091919689 1.0000   
         H         H         1.0       0.6058616412479034  0.24631032464703448           0.7870702874050821 1.0000   
         H         H         1.0       0.6061262499446205  0.23722365111818772           0.8367980526397389 1.0000   
         H         H         1.0       0.509357649088907   0.1343788812784705  0.7140523712941371 1.0000   
         H         H         1.0       0.5120059598278796  0.1782709860363334  0.7261830563154728 1.0000   
         H         H         1.0       0.6021051874649943  0.22015995910113365           0.7496765634683372 1.0000   
         H         H         1.0       0.599981132896282   0.17192249974897342           0.738752763003866  1.0000   
         H         H         1.0       0.5740711403279936  0.2820779058826146  0.7794043359537788 1.0000   
         H         H         1.0       0.610830471169633   0.3321274776792338  0.7664465709464252 1.0000   
         H         H         1.0       0.6353207184743851  0.30216606770758414           0.690650907818192  1.0000   
         H         H         1.0       0.5986343993473444  0.2510539946986535  0.7055273138713515 1.0000   
         H         H         1.0       0.5288197648990203  0.22560454301309066           0.698270926410093  1.0000   
         H         H         1.0       0.48290213428209305           0.2264259198383242 0.6935422811066885 1.0000   
         H         H         1.0       0.47794081304165736           0.2416985761893574 0.7842850827015824 1.0000   
         H         H         1.0       0.5235788034581851  0.24361723061752166           0.7911983100961726 1.0000   
         C         C         1.0       0.6255809332304646  0.34576583269832617           0.665304639356905  1.0000   
         C         C         1.0       0.6480083049511653  0.34808546223913517           0.6471385418470063 1.0000   
         C         C         1.0       0.6394904173277365  0.32926251579494853           0.6245671763905445 1.0000   
         C         C         1.0       0.6083770843721154  0.3093844917293607  0.6177258861056144 1.0000   
         C         C         1.0       0.5871411683772878  0.3085650263367467  0.636529432616857  1.0000   
         C         C         1.0       0.5953446622900603  0.3275285841204505  0.6587370400569702 1.0000   
         H         H         1.0       0.6727719453636551  0.36074964730097214           0.6510881834183554 1.0000   
         H         H         1.0       0.6200324630904559  0.23510687761807325           0.06701116955414577          1.0000   
         H         H         1.0       0.5630539696275293  0.292743577375573   0.6336267994793187 1.0000   
         H         H         1.0       0.5764317755105547  0.32453114387260046           0.6707548202692312 1.0000   
         C         C         1.0       0.5796003881942674  0.24105940125878283           0.6273274228540138 1.0000   
         C         C         1.0       0.6029213683912896  0.16228665799706243           0.017839619290285214         1.0000   
         C         C         1.0       0.6005047288048724  0.15608189527128893           0.9895520299915155 1.0000   
         C         C         1.0       0.5883723157759939  0.12746812650651307           0.9792510538015031 1.0000   
         C         C         1.0       0.6007023442923788  0.2139648310214669  0.6300846527001427 1.0000   
         C         C         1.0       0.5781913711000093  0.21766852582524815           0.6373522706998809 1.0000   
         C         C         1.0       0.6149953705380394  0.1952681493512348  0.028027591309084166         1.0000   
         C         C         1.0       0.6430210020674713  0.22214777567159516           0.008886679179265444         1.0000   
         C         C         1.0       0.6440007388992194  0.24821825763039998           0.004267979408627998         1.0000   
         C         C         1.0       0.6668125405659671  0.27066732738045723           0.9884958037416783 1.0000   
         C         C         1.0       0.689806753047738   0.26739027181354336           0.9761283541938701 1.0000   
         C         C         1.0       0.6872330741138828  0.24037682561721385           0.9788740959876532 1.0000   
         C         C         1.0       0.6659192123179244  0.2194974965012043  0.9965402470196045 1.0000   
         C         C         1.0       0.573179804116903   0.19801516446309464           0.0022223225831061733        1.0000   
         C         C         1.0       0.5478715493691737  0.20088488092008863           0.0018736796660632216        1.0000   
         C         C         1.0       0.5331149756794165  0.19940541157475933           0.027715383337813426         1.0000   
         C         C         1.0       0.5420564016384023  0.19241542803948358           0.05203396948822214          1.0000   
         C         C         1.0       0.566848933593087   0.188890028713219   0.052803082280418856         1.0000   
         C         C         1.0       0.5840247535009585  0.19486794396159157           0.028003144481154596         1.0000   
         C         C         1.0       0.5052040589877975  0.20192269085542713           0.026076850319068923         1.0000   
         C         C         1.0       0.4392367153736282  0.10573470115119539           0.015691648587394358         1.0000   
         C         C         1.0       0.45128070708153595           0.12269983141196181          0.9913700714197228 1.0000   
         C         C         1.0       0.4715956441150003  0.1535417839328129  0.9943647303666552 1.0000   
         C         C         1.0       0.4793705455038365  0.16733209682520525           0.020712405357383945         1.0000   
         C         C         1.0       0.4650145931982538  0.1482447018232768  0.044304188317270565         1.0000   
         C         C         1.0       0.44542012395858616           0.1187248704292219 0.0416469656306    1.0000   
         C         C         1.0       0.5073146247643945  0.22466700683751295           0.0036646689656314457        1.0000   
         C         C         1.0       0.5343485657685204  0.2530968355952059  0.9994207016297052 1.0000   
         C         C         1.0       0.5364613198232197  0.27155328538794266           0.9790891076050725 1.0000   
         C         C         1.0       0.5119567472643819  0.26373367770542827           0.9619359905898418 1.0000   
         C         C         1.0       0.4849414215050235  0.23766415971726593           0.9668706594670955 1.0000   
         C         C         1.0       0.483270224392237   0.21710907723494305           0.985665788521745  1.0000   
         C         C         1.0       0.5204972903147039  0.23569650317042895           0.07137941959764982          1.0000   
         C         C         1.0       0.5157299124992389  0.24943949395307824           0.09269756361056691          1.0000   
         C         C         1.0       0.48727541294987253           0.24491556182616905          0.09364049275098774          1.0000   
         C         C         1.0       0.4645798589026565  0.22503386525381638           0.07742644376543417          1.0000   
         C         C         1.0       0.4687325769129109  0.20809441470423523           0.059046839218233504         1.0000   
         C         C         1.0       0.4977053598190612  0.21474014068095273           0.053845451444014536         1.0000   
         H         H         1.0       0.5609743060020688  0.24371313513637868           0.631413309676967  1.0000   
         H         H         1.0       0.6057271151352003  0.17246347507405593           0.9730607729624184 1.0000   
         H         H         1.0       0.5846239758020622  0.12163566056408802           0.9553745680208872 1.0000   
         H         H         1.0       0.5582120412682217  0.2008037209248488  0.6493112085785802 1.0000   
         H         H         1.0       0.6284226748746092  0.2513504320425367  0.016970337029049265         1.0000   
         H         H         1.0       0.6690777555493894  0.2914417650517967  0.9858883959514527 1.0000   
         H         H         1.0       0.7018615124545542  0.23629773700609355           0.9653619061187703 1.0000   
         H         H         1.0       0.6669087426180931  0.20041231770478843           0.9981432511729943 1.0000   
         H         H         1.0       0.5833391029504545  0.19902394977083673           0.9812999756533414 1.0000   
         H         H         1.0       0.5408971221509605  0.2023453236716939  0.9816093673526325 1.0000   
         H         H         1.0       0.5304466785398835  0.19094877235390603           0.07219130843052879          1.0000   
         H         H         1.0       0.5717638317183933  0.1827782676617948  0.07293436317438129          1.0000   
         H         H         1.0       0.4469917587185505  0.11355239487512539           0.969958998419277  1.0000   
         H         H         1.0       0.4787158559254407  0.1661570630119083  0.9744742315358109 1.0000   
         H         H         1.0       0.4684500201512887  0.15936802622566495           0.06428646940448002          1.0000   
         H         H         1.0       0.4360579427861976  0.10794377457278752           0.06282552558823307          1.0000   
         H         H         1.0       0.5546087104213581  0.2610554392720922  0.012522490592900004         1.0000   
         H         H         1.0       0.5582749246224009  0.2932814238122762  0.9774008199316874 1.0000   
         H         H         1.0       0.46784752887171455           0.2324369514065745 0.9507797213400762 1.0000   
         H         H         1.0       0.460822241198136   0.19522056175461927           0.9877821932386637 1.0000   
         H         H         1.0       0.5446466066572723  0.24315448126386469           0.0682704527039264 1.0000   
         H         H         1.0       0.5348774540384935  0.26569817709676374           0.10527221816134036          1.0000   
         H         H         1.0       0.43161334226417725           0.2720319430270439 0.5691464791912361 1.0000   
         H         H         1.0       0.44873349204286006           0.1931522996707675 0.04843110088096858          1.0000   
         C         C         1.0       0.6919414142677854  0.2620116173457314  0.726779815718207  1.0000   
         C         C         1.0       0.7085836929926341  0.2749621720939119  0.750693360268141  1.0000   
         C         C         1.0       0.7131454250253695  0.25834480940913146           0.7685244102991857 1.0000   
         C         C         1.0       0.6984067450428482  0.22814315539741575           0.7636365151209729 1.0000   
         C         C         1.0       0.6820332182833538  0.21627001089222514           0.7383348552901875 1.0000   
         C         C         1.0       0.6793094526915554  0.23281531354947846           0.7199063480928292 1.0000   
         H         H         1.0       0.7177903024111661  0.297685964671109   0.7565630512012816 1.0000   
         H         H         1.0       0.7282283136370418  0.26955067552029316           0.7847568594741117 1.0000   
         H         H         1.0       0.6710784539050101  0.19448487494039565           0.7321671993384301 1.0000   
         H         H         1.0       0.6671879301512338  0.22409259173268012           0.6999918638694919 1.0000   
         C         C         1.0       0.6433627055982093  0.16227009671527418           0.7870465229255899 1.0000   
         C         C         1.0       0.6738765988566211  0.1720372505691761  0.7804461422729846 1.0000   
         C         C         1.0       0.679332503217889   0.14999208073663348           0.775338065897922  1.0000   
         C         C         1.0       0.6554994795334335  0.12065950107125614           0.7750545755725564 1.0000   
         C         C         1.0       0.6260671054504947  0.11202218739817993           0.782170598564618  1.0000   
         C         C         1.0       0.6204010486542243  0.13303616824915243           0.7889331363238965 1.0000   
         C         C         1.0       0.7000519139233209  0.20672134055528846           0.7843605595690277 1.0000   
         C         C         1.0       0.6956120435477906  0.2088396887606956  0.8179899499503553 1.0000   
         C         C         1.0       0.701567584895663   0.1930087640522797  0.8375282315146192 1.0000   
         C         C         1.0       0.7018467080943737  0.1967788450902016  0.8661578833865544 1.0000   
         C         C         1.0       0.6966945093968164  0.21744587147117297           0.8764029904241387 1.0000   
         C         C         1.0       0.6887047789509794  0.2318727027587053  0.8579124660877734 1.0000   
         C         C         1.0       0.6889158072580168  0.22786613793139254           0.8291023185719393 1.0000   
         C         C         1.0       0.745676895912849   0.21041282203767953           0.7526253148022419 1.0000   
         C         C         1.0       0.7743533226527591  0.21642198509952174           0.7494539415907219 1.0000   
         C         C         1.0       0.7961159399220378  0.2332505942751219  0.7704930708131078 1.0000   
         C         C         1.0       0.7870622838930098  0.2438225319633373  0.7920148090527005 1.0000   
         C         C         1.0       0.7575437251643231  0.23597210507153957           0.7964369594478697 1.0000   
         C         C         1.0       0.7349207545147564  0.21689248840223996           0.7774782159290886 1.0000   
         C         C         1.0       0.828686630371652   0.23801576710912897           0.7687677426541126 1.0000   
         C         C         1.0       0.7893380577175896  0.14653753836885655           0.7927565754357504 1.0000   
         C         C         1.0       0.7992394622241449  0.1560760443273511  0.7650110025210299 1.0000   
         C         C         1.0       0.8141075217962038  0.18521237435443505           0.7576355435765657 1.0000   
         C         C         1.0       0.817046268881534   0.20548074621669132           0.7764527000567911 1.0000   
         C         C         1.0       0.8066641567602139  0.19487959459901152           0.804893047436349  1.0000   
         C         C         1.0       0.7925222542910478  0.16566630813959887           0.8127365420883088 1.0000   
         C         C         1.0       0.8539013704454517  0.2603290105422804  0.7906151584256534 1.0000   
         C         C         1.0       0.8593493169839365  0.2876781409768987  0.7958609621690118 1.0000   
         C         C         1.0       0.8836875147304907  0.30922786900074567           0.8114648496541825 1.0000   
         C         C         1.0       0.9023015840293003  0.3016057501320125  0.8234574116796889 1.0000   
         C         C         1.0       0.8978200968546037  0.2752901687012505  0.8194761158151748 1.0000   
         C         C         1.0       0.8747930288545389  0.2550181493235487  0.8017747915925244 1.0000   
         C         C         1.0       0.8651234949382598  0.2476148869566867  0.7257188679553555 1.0000   
         C         C         1.0       0.8840351784706438  0.2656849582799408  0.7025918330091924 1.0000   
         C         C         1.0       0.8783164427996452  0.28621832392926533           0.6915295520312381 1.0000   
         C         C         1.0       0.858620102337912   0.29139357303899377           0.7052261785558225 1.0000   
         C         C         1.0       0.8404241160512114  0.27352567021170204           0.7273904448183642 1.0000   
         C         C         1.0       0.8444886848612704  0.2522761733878732  0.7386193281174092 1.0000   
         H         H         1.0       0.640507475649298   0.18036930110424493           0.7911461628436309 1.0000   
         H         H         1.0       0.7018380228374939  0.15536213543875177           0.772891003720794  1.0000   
         H         H         1.0       0.6650311303557483  0.1075603657833914  0.7702612503182975 1.0000   
         H         H         1.0       0.5985385096772566  0.12824899505811843           0.7968633615872405 1.0000   
         H         H         1.0       0.707849239430245   0.17866771324761715           0.8293695051223692 1.0000   
         H         H         1.0       0.7051500310900696  0.18297266179746596           0.880312948117169  1.0000   
         H         H         1.0       0.6814501852578777  0.24612662918366593           0.8667544364910341 1.0000   
         H         H         1.0       0.6812555762561044  0.23993674414863875           0.8163082275737387 1.0000   
         H         H         1.0       0.7299583242293155  0.20085998235632874           0.7354304475801866 1.0000   
         H         H         1.0       0.779168351386737   0.20756996589506901           0.7304844316203645 1.0000   
         H         H         1.0       0.8023542177741732  0.2557615137803071  0.8080073371629625 1.0000   
         H         H         1.0       0.7544910845424566  0.24802634012214636           0.813680738931825  1.0000   
         H         H         1.0       0.7944223023686967  0.13788041086179798           0.7498490170846153 1.0000   
         H         H         1.0       0.819989095841925   0.19031460687615107           0.7347310172165095 1.0000   
         H         H         1.0       0.8081413246264704  0.20966202840808112           0.8214008271207656 1.0000   
         H         H         1.0       0.7842992497941711  0.15916627726908764           0.834385905348183  1.0000   
         H         H         1.0       0.8441031232576908  0.2927225678404084  0.7883216649626112 1.0000   
         H         H         1.0       0.8831036547118939  0.32827962986841547           0.8163795898029236 1.0000   
         H         H         1.0       0.915252057345566   0.27235229982124215           0.8271510061625116 1.0000   
         H         H         1.0       0.8721297155498134  0.2328326375525399  0.7980080622901988 1.0000   
         H         H         1.0       0.8655692287816302  0.22936459936502182           0.7340558662039872 1.0000   
         H         H         1.0       0.9006890220825016  0.2629745346579965  0.6920254802985051 1.0000   
         H         H         1.0       0.8543688067647456  0.30704054580713225           0.6946202795645396 1.0000   
         H         H         1.0       0.8238573555592418  0.2794620020415773  0.7343841610300488 1.0000   
         C         C         1.0       0.8980675828852686  0.297629687943154   0.8938848264018788 1.0000   
         C         C         1.0       0.8850966908620707  0.31329974869427546           0.8981486310629249 1.0000   
         C         C         1.0       0.8577940355609674  0.3005753883790154  0.9114402131616608 1.0000   
         C         C         1.0       0.8422353223849617  0.2716798624863946  0.9216375249490683 1.0000   
         C         C         1.0       0.8541189430469837  0.25346555828147466           0.9151097942243356 1.0000   
         C         C         1.0       0.8806474305946537  0.26744092890639903           0.8995218899396412 1.0000   
         H         H         1.0       0.897004765887447   0.3366633912140272  0.8918561740750265 1.0000   
         H         H         1.0       0.8493121582886848  0.3121586214477705  0.9181981885188496 1.0000   
         H         H         1.0       0.8465952801829209  0.2316403987948048  0.9241535437063418 1.0000   
         H         H         1.0       0.8908961000057093  0.2546156648294577  0.8951188193960292 1.0000   
         C         C         1.0       0.7826531080273844  0.21407077024602453           0.9028458915558552 1.0000   
         C         C         1.0       0.78578945308872    0.2234576049627367  0.9303684468855425 1.0000   
         C         C         1.0       0.7637377759004185  0.20497004223019627           0.9508116866325604 1.0000   
         C         C         1.0       0.7407854010223117  0.17639214189532612           0.9438072163782921 1.0000   
         C         C         1.0       0.742834624468469   0.1670047554459908  0.9174092882975784 1.0000   
         C         C         1.0       0.762743915703142   0.18546793958875482           0.8950168513426712 1.0000   
         C         C         1.0       0.8128227486007654  0.2558527947278809  0.9421194052492285 1.0000   
         C         C         1.0       0.7953909409597492  0.2727389301080621  0.9448617324556899 1.0000   
         C         C         1.0       0.7834087792293464  0.2730388049917502  0.9714248408657693 1.0000   
         C         C         1.0       0.765796026624715   0.283868823931439   0.974966919858796  1.0000   
         C         C         1.0       0.7592162827404813  0.29536339718111665           0.9522638185800557 1.0000   
         C         C         1.0       0.7672903700331243  0.2916935326763842  0.9253035647693135 1.0000   
         C         C         1.0       0.78486251901904    0.2806777719969513  0.921199890395375  1.0000   
         C         C         1.0       0.8292524500522993  0.23144151415467348           0.9774229236736696 1.0000   
         C         C         1.0       0.847969084422855   0.23336079777668062           0.9981306698219193 1.0000   
         C         C         1.0       0.8680942754377666  0.258585915861302   0.012136770166989441         1.0000   
         C         C         1.0       0.8666329088228656  0.28299716422957666           0.007262273552479659         1.0000   
         C         C         1.0       0.8471863686609118  0.28110712658140036           0.9869410386869331 1.0000   
         C         C         1.0       0.8292045551376873  0.2559557213527023  0.9709296140621231 1.0000   
         C         C         1.0       0.8005308987339107  0.2975659617658346  0.6192979133072553 1.0000   
         C         C         1.0       0.8095624823890365  0.2223937947502768  0.633782575679963  1.0000   
         C         C         1.0       0.8208049635052287  0.23966058260167428           0.609247314819447  1.0000   
         C         C         1.0       0.8185670740020963  0.2638675598107271  0.6062179047346613 1.0000   
         C         C         1.0       0.8050045232643875  0.27109617758442056           0.6264715685639984 1.0000   
         C         C         1.0       0.799193314274019   0.2574677309018742  0.652803133024129  1.0000   
         C         C         1.0       0.7995576631634861  0.2326336918007784  0.6553942892915524 1.0000   
         C         C         1.0       0.7706566924804827  0.29451242497098645           0.6349370524717448 1.0000   
         C         C         1.0       0.7687057954157172  0.3185094741627731  0.642431583833364  1.0000   
         C         C         1.0       0.7436555737090734  0.313673807518657   0.6584828372962132 1.0000   
         C         C         1.0       0.7182294895481738  0.2851172055482254  0.6635350030546471 1.0000   
         C         C         1.0       0.7200275198243836  0.2625895882019351  0.6524058568169804 1.0000   
         C         C         1.0       0.7450979142966122  0.2666081674119147  0.6389479772450354 1.0000   
         C         C         1.0       0.8387788862804957  0.33706370249464945           0.6558975306505586 1.0000   
         C         C         1.0       0.8675611440550408  0.36057371284109924           0.6622863655454805 1.0000   
         C         C         1.0       0.8907710969960174  0.373783296018346   0.6414741864159185 1.0000   
         C         C         1.0       0.951691262944402   0.28528993614888437           0.9638150437701862 1.0000   
         C         C         1.0       0.9258567939722097  0.27949630925321656           0.9804666913011749 1.0000   
         C         C         1.0       0.8324984440186708  0.32494678151973994           0.6283211037734389 1.0000   
         H         H         1.0       0.7980183241379449  0.22727419631936135           0.8855048236570869 1.0000   
         H         H         1.0       0.7656095374958446  0.2141323716634183  0.9727176390000848 1.0000   
         H         H         1.0       0.7274482998341039  0.16284741834649324           0.9604972091405201 1.0000   
         H         H         1.0       0.7602292269074656  0.17551949597918207           0.8732904793004529 1.0000   
         H         H         1.0       0.7840123859922429  0.2614573872135683  0.9896095482965648 1.0000   
         H         H         1.0       0.756831348157236   0.28420024374142344           0.9956499807485056 1.0000   
         H         H         1.0       0.759820379588702   0.29719220597324325           0.9065484850896001 1.0000   
         H         H         1.0       0.7905499014700824  0.2761206371203771  0.9009390126460042 1.0000   
         H         H         1.0       0.8168600206830096  0.21195743616402518           0.9648787601892651 1.0000   
         H         H         1.0       0.849815435503171   0.21547635561452638           0.002370147355611918         1.0000   
         H         H         1.0       0.8859368478102277  0.3062627898411985  0.013581298660954033         1.0000   
         H         H         1.0       0.8525001072194438  0.3008924544685066  0.9782593151778058 1.0000   
         H         H         1.0       0.8293943009592981  0.2313864672908573  0.5927759909365405 1.0000   
         H         H         1.0       0.8256555291372646  0.27462271380754427           0.5859147499524218 1.0000   
         H         H         1.0       0.7932175102515882  0.26324167573265383           0.6720115853808865 1.0000   
         H         H         1.0       0.793438115300871   0.2219915648507898  0.6761419418785403 1.0000   
         H         H         1.0       0.7853279619545921  0.3400280241074455  0.6368938386728746 1.0000   
         H         H         1.0       0.7446696277518022  0.3330671767760594  0.6633631055312084 1.0000   
         H         H         1.0       0.6993311923450942  0.24158090741525973           0.6484484846112891 1.0000   
         H         H         1.0       0.745153747941032   0.2473044105242508  0.6306920328308366 1.0000   
         H         H         1.0       0.8213317290504707  0.3275352913967651  0.6722568743535167 1.0000   
         H         H         1.0       0.8724682731612756  0.3683366242407445  0.6841344049007749 1.0000   
         H         H         1.0       0.9521237364179161  0.29044355610913347           0.9422533859844587 1.0000   
         H         H         1.0       0.9095034635306933  0.282702547465053   0.9718832008837207 1.0000   
         C         C         1.0       0.589229505604895   0.8996791997446878  0.7119888117188093 1.0000   
         C         C         1.0       0.5794180433207216  0.9143939601093375  0.7279730832129306 1.0000   
         C         C         1.0       0.5887286397126709  0.9436000924081388  0.7198522292037791 1.0000   
         C         C         1.0       0.6087287654099882  0.9578374636700551  0.697736710304919  1.0000   
         C         C         1.0       0.6172744941134506  0.9410305963728515  0.6812817053221231 1.0000   
         C         C         1.0       0.6042460724037944  0.9115541751517788  0.6864397397433348 1.0000   
         H         H         1.0       0.5661365477566427  0.9066299687583019  0.7477191511142708 1.0000   
         H         H         1.0       0.5800122067032537  0.9541336971225226  0.7329019825461377 1.0000   
         H         H         1.0       0.6346072728573839  0.9521583344176571  0.6649183834494157 1.0000   
         H         H         1.0       0.6090050728131091  0.8983347056124281  0.6720247889764136 1.0000   
         C         C         1.0       0.6251131105575765  0.008611818021330597         0.7424027454488394 1.0000   
         C         C         1.0       0.6202994939907299  0.012323120021410672         0.7144242053675571 1.0000   
         C         C         1.0       0.6150275346838394  0.03392389829918252           0.7084029704494185 1.0000   
         C         C         1.0       0.6092173778714465  0.047790664900500435         0.7298708625262261 1.0000   
         C         C         1.0       0.611549718804796   0.04245648809867463           0.7579799037378531 1.0000   
         C         C         1.0       0.6204203144269916  0.023546431143013136         0.7644569241164868 1.0000   
         C         C         1.0       0.6257058969694943  0.9932451393462827  0.6911112445511783 1.0000   
         C         C         1.0       0.6106515468798703  0.9925303730119742  0.6622727121877141 1.0000   
         C         C         1.0       0.6251156514496142  0.99615768910318    0.6353156820903175 1.0000   
         C         C         1.0       0.6112492701866765  0.9937944227825697  0.6100191264886932 1.0000   
         C         C         1.0       0.5805081592689212  0.9838189300669041  0.6111932978417254 1.0000   
         C         C         1.0       0.5653441767407971  0.9801711530704542  0.6357141507911613 1.0000   
         C         C         1.0       0.5796158090517836  0.9838142358855942  0.6618310580927108 1.0000   
         C         C         1.0       0.678817367561106   0.038796712533746947         0.6782423415718437 1.0000   
         C         C         1.0       0.7104716847035201  0.05582871012075841           0.6760475699825046 1.0000   
         C         C         1.0       0.7269363203565425  0.044240590171133354         0.6834725677916786 1.0000   
         C         C         1.0       0.7111770249824645  0.01631045737941661           0.697639684236571  1.0000   
         C         C         1.0       0.6796943045232406  0.0007382878155486328        0.7011226948877286 1.0000   
         C         C         1.0       0.6618336583790821  0.009938987317502868         0.6900120829541104 1.0000   
         C         C         1.0       0.7596781479747973  0.05776044840095418           0.6704928164168594 1.0000   
         C         C         1.0       0.808028996976361   0.15497639381647793           0.6624876844776797 1.0000   
         C         C         1.0       0.789857043602001   0.13919575880745733           0.6849965545832384 1.0000   
         C         C         1.0       0.7776355695981068  0.1090109749519328  0.6893925182042511 1.0000   
         C         C         1.0       0.7814563504619099  0.09259598209181141           0.6690638019601538 1.0000   
         C         C         1.0       0.7824391618343949  0.05048589517261082           0.09733300640628784          1.0000   
         C         C         1.0       0.793588101989852   0.08004473552117419           0.09238939027757209          1.0000   
         C         C         1.0       0.7570510675852198  0.982551853495405   0.10202625338955973          1.0000   
         C         C         1.0       0.730107815325044   0.9552985052590743  0.10434491476448926          1.0000   
         C         C         1.0       0.7177789773992366  0.9363955950427059  0.08030901632847609          1.0000   
         C         C         1.0       0.7320651976449266  0.9443346935816185  0.054704865928481006         1.0000   
         C         C         1.0       0.7611510313570417  0.9707931198025279  0.05392260332454968          1.0000   
         C         C         1.0       0.773446737197193   0.9894675353376495  0.07639925267130132          1.0000   
         C         C         1.0       0.8050444448363916  0.051214507810951826         0.6708454903771396 1.0000   
         C         C         1.0       0.8241625779812317  0.04629845632395324           0.6843321137405568 1.0000   
         C         C         1.0       0.8190632984070151  0.03628563830402909           0.7122943586756462 1.0000   
         C         C         1.0       0.7954189201939195  0.03356443388997166           0.7277798770772111 1.0000   
         C         C         1.0       0.7773435850574402  0.04116649310760656           0.7160091300855884 1.0000   
         C         C         1.0       0.7806559996284077  0.04919091382693064           0.6869957818405928 1.0000   
         H         H         1.0       0.6285938054875974  0.991528404253572   0.7488618653233972 1.0000   
         H         H         1.0       0.6124780752959171  0.03929763418506682           0.6864281160086935 1.0000   
         H         H         1.0       0.599937041075618   0.06078363801618347           0.7236320489947942 1.0000   
         H         H         1.0       0.6274468522557411  0.023464826378625903         0.7865617986330258 1.0000   
         H         H         1.0       0.6474890346109066  0.0009775305511008359        0.6325227740178399 1.0000   
         H         H         1.0       0.6240872826830643  0.00010224719673268545       0.5890449658846277 1.0000   
         H         H         1.0       0.541786111116046   0.9746115263185525  0.6356941755709488 1.0000   
         H         H         1.0       0.567635207805002   0.9793450595987728  0.682465106017759  1.0000   
         H         H         1.0       0.6666164056433357  0.04734830562433623           0.6706251322453911 1.0000   
         H         H         1.0       0.7192909483630925  0.07475675146565508           0.6629421421706695 1.0000   
         H         H         1.0       0.7190760509560762  0.0034561679653406507        0.7058897995595627 1.0000   
         H         H         1.0       0.6698251120356281  0.9810370661449253  0.7133100042819944 1.0000   
         H         H         1.0       0.7827641641599988  0.14961365937316368           0.7002027939761121 1.0000   
         H         H         1.0       0.765999297724697   0.09899688815783514           0.7097090823389598 1.0000   
         H         H         1.0       0.7625308344548949  0.03460179750103176           0.08609548350854346          1.0000   
         H         H         1.0       0.7847835559595567  0.086713013691881   0.07531907597965604          1.0000   
         H         H         1.0       0.7173924459093239  0.9501764524432298  0.1245507211468142 1.0000   
         H         H         1.0       0.6959883754603857  0.9153426277925432  0.082788522400286  1.0000   
         H         H         1.0       0.775168668802358   0.9758580683737643  0.03426298400008987          1.0000   
         H         H         1.0       0.7957468528269325  0.009459676146183815         0.07418054752900294          1.0000   
         H         H         1.0       0.8125308713693701  0.060358862997097695         0.6500380756648332 1.0000   
         H         H         1.0       0.8447297124474369  0.05070162245788512           0.6734308157382365 1.0000   
         H         H         1.0       0.7934409410863448  0.031074786314504887         0.7503293957390851 1.0000   
         H         H         1.0       0.7610907975652359  0.042537782887667186         0.7305989445423615 1.0000   
         C         C         1.0       0.7096122481940002  0.9480284524642457  0.9870052687304959 1.0000   
         C         C         1.0       0.6801960891961062  0.9339124284533648  0.9779681925597491 1.0000   
         C         C         1.0       0.6710281388137005  0.946893433558619   0.9608961354939473 1.0000   
         C         C         1.0       0.6894229425583833  0.9768672790368416  0.9556223506630103 1.0000   
         C         C         1.0       0.7183893171447061  0.9931057735865906  0.966773862129259  1.0000   
         C         C         1.0       0.7293246823880145  0.9790244906059582  0.9813861585058282 1.0000   
         H         H         1.0       0.6642510185494416  0.910258588830197   0.9805841864285731 1.0000   
         H         H         1.0       0.6482438071036687  0.9334171551212975  0.9524483839732734 1.0000   
         H         H         1.0       0.7338587596260338  0.01859360721788117           0.9660103053322517 1.0000   
         H         H         1.0       0.7533681982766842  0.9909755842899916  0.9867280418776601 1.0000   
         C         C         1.0       0.7041230617515235  0.04342317414997487           0.9509468646854089 1.0000   
         C         C         1.0       0.6971958441926618  0.025123159141950513         0.927429824262361  1.0000   
         C         C         1.0       0.7057726874821149  0.037866159361314544         0.8993907857833471 1.0000   
         C         C         1.0       0.721799524297724   0.06778521177673702           0.8967483832218862 1.0000   
         C         C         1.0       0.728196021653379   0.08652233324274405           0.9198261807441264 1.0000   
         C         C         1.0       0.7203598011776388  0.07470907950899086           0.9476330312384548 1.0000   
         C         C         1.0       0.6777554133771784  0.9902623988996334  0.9316614998006897 1.0000   
         C         C         1.0       0.6445329875282376  0.9850096172304796  0.9387091207289648 1.0000   
         C         C         1.0       0.6307089828709059  0.9926938952203911  0.9187735783475955 1.0000   
         C         C         1.0       0.603092878834985   0.9886320934139041  0.9261577693927042 1.0000   
         C         C         1.0       0.5880537134493143  0.9750112007413505  0.9508030386664384 1.0000   
         C         C         1.0       0.6040735292226517  0.9725207306145629  0.9714299150240965 1.0000   
         C         C         1.0       0.6324794755195172  0.9782092190015315  0.9664261074651376 1.0000   
         C         C         1.0       0.7080679366447561  0.9801983470357529  0.8944236696376283 1.0000   
         C         C         1.0       0.7142480456507091  0.9773158781505674  0.8666190447520321 1.0000   
         C         C         1.0       0.6920009938421612  0.9649281503330961  0.845967131658747  1.0000   
         C         C         1.0       0.6634122397312263  0.9579507726040049  0.8547485130648931 1.0000   
         C         C         1.0       0.6565569613031106  0.9616431640868731  0.8831473604338704 1.0000   
         C         C         1.0       0.680545554293366   0.9746815189748166  0.9029776747944022 1.0000   
         C         C         1.0       0.700975734390607   0.9627306121621594  0.8139261459634445 1.0000   
         C         C         1.0       0.7339302759284616  0.05594997422944358           0.7955553084159938 1.0000   
         C         C         1.0       0.7536026430243409  0.04829492065047414           0.8053994821909538 1.0000   
         C         C         1.0       0.7442991325438403  0.01977295940697288           0.8091231115254232 1.0000   
         C         C         1.0       0.7133406977977028  0.9959229861666303  0.805270972365481  1.0000   
         C         C         1.0       0.6949991281228961  0.0041321559819449405        0.7933946588051595 1.0000   
         C         C         1.0       0.7055121109985913  0.03400490161730918           0.7881275450953695 1.0000   
         C         C         1.0       0.6742762897453173  0.9399318935099725  0.7929938482176164 1.0000   
         C         C         1.0       0.6485567505596422  0.9140549202961475  0.8030629641247478 1.0000   
         C         C         1.0       0.6284008262967152  0.892833137196549   0.7833910522029762 1.0000   
         C         C         1.0       0.6341751673002838  0.8981281421180054  0.7543752055109894 1.0000   
         C         C         1.0       0.6591566942631654  0.9235582210680076  0.7441920137207331 1.0000   
         C         C         1.0       0.6786002739703391  0.9420932358025617  0.7640341506311842 1.0000   
         C         C         1.0       0.7483803510818202  0.964757613558579   0.7887671097137556 1.0000   
         C         C         1.0       0.7652289439322544  0.9526654769049342  0.7855159771837966 1.0000   
         C         C         1.0       0.7573490458760238  0.9278322101014884  0.800405472095056  1.0000   
         C         C         1.0       0.7341204230753544  0.915384776701373   0.8210419826314065 1.0000   
         C         C         1.0       0.7176927525566253  0.9272435940154865  0.8250702310274048 1.0000   
         C         C         1.0       0.7230013721038233  0.9514992467525599  0.8087622710003629 1.0000   
         H         H         1.0       0.6980127096316966  0.03419270021778997           0.9722611953663403 1.0000   
         H         H         1.0       0.7026543194639079  0.02587517707333786           0.8803929570597296 1.0000   
         H         H         1.0       0.7312051039363058  0.07699671301606892           0.875488586217399  1.0000   
         H         H         1.0       0.7257006211315042  0.08912435453030353           0.9656481085518492 1.0000   
         H         H         1.0       0.6410570090869248  0.0024755450244480226        0.8984184275782853 1.0000   
         H         H         1.0       0.5893344204858192  0.9912793584985917  0.90919677796167   1.0000   
         H         H         1.0       0.5918282583558943  0.9651845032656078  0.993029510870021  1.0000   
         H         H         1.0       0.643680850492993   0.9742358511445491  0.9832558394834946 1.0000   
         H         H         1.0       0.7265874295496367  0.9908448745476655  0.9082338543648345 1.0000   
         H         H         1.0       0.7376977656484404  0.9857758122513737  0.8616908010855363 1.0000   
         H         H         1.0       0.645854264559189   0.9493178245862071  0.8395058902789564 1.0000   
         H         H         1.0       0.6323065327936633  0.9548023733171079  0.8853110261469316 1.0000   
         H         H         1.0       0.7753886578379516  0.06509559231649464           0.8067096152509425 1.0000   
         H         H         1.0       0.761195623567284   0.01642122448061789           0.81777868836798   1.0000   
         H         H         1.0       0.671938226034289   0.9894796518575297  0.7882999499311443 1.0000   
         H         H         1.0       0.69007079466388    0.03977709129125717           0.7820846145399104 1.0000   
         H         H         1.0       0.6424115236770114  0.9091436606247838  0.8253732997770051 1.0000   
         H         H         1.0       0.6098388020191019  0.8710400769881881  0.7907193106146413 1.0000   
         H         H         1.0       0.6656740655670181  0.9250041413889293  0.7221123678728748 1.0000   
         H         H         1.0       0.6999057734227194  0.960438375235094   0.7552812851680678 1.0000   
         H         H         1.0       0.7538502899533425  0.9829713391976026  0.7736046460169234 1.0000   
         H         H         1.0       0.7784465557751448  0.9569698418789674  0.7665664899572935 1.0000   
         H         H         1.0       0.7300025629019996  0.8974208784665824  0.8343854946738339 1.0000   
         H         H         1.0       0.7001006637606955  0.9157575633190623  0.8405752276883386 1.0000   
         C         C         1.0       0.3961845203907351  0.9922369508040911  0.5621234004415331 1.0000   
         C         C         1.0       0.4085362588175896  0.9769355685570588  0.5700033403902552 1.0000   
         C         C         1.0       0.4367344648192599  0.992807327694094   0.5842188325211222 1.0000   
         C         C         1.0       0.4512034029899906  0.0229634426316232  0.5914098672347806 1.0000   
         C         C         1.0       0.4362073823100563  0.036279092418628256         0.5833136793664407 1.0000   
         C         C         1.0       0.4074770106628906  0.020641472272449057         0.569573151661     1.0000   
         H         H         1.0       0.39947853780933973           0.9551443592902061 0.5621516201306039 1.0000   
         H         H         1.0       0.4491913439438154  0.9827340658519931  0.5895382876796246 1.0000   
         H         H         1.0       0.44638373049922464           0.05891324238174511          0.5901289833835781 1.0000   
         H         H         1.0       0.3946503630885285  0.03093366217043414           0.5653808432970054 1.0000   
         C         C         1.0       0.5125031751267775  0.08976374605284376           0.5890785932016653 1.0000   
         C         C         1.0       0.502576279804926   0.0734046661865646  0.6138838483667745 1.0000   
         C         C         1.0       0.5194097360947489  0.08548905791716832           0.637663625869853  1.0000   
         C         C         1.0       0.5439012953137914  0.11461628393996671           0.6385340359828423 1.0000   
         C         C         1.0       0.5542551869428507  0.13096973195841483           0.6132817009919843 1.0000   
         C         C         1.0       0.5384063343073239  0.11768747331064294           0.5886581481228597 1.0000   
         C         C         1.0       0.479697895142774   0.037410604450159646         0.6111908616265405 1.0000   
         C         C         1.0       0.5045335434451953  0.02949315796268248           0.6032971368318238 1.0000   
         C         C         1.0       0.5262806516199636  0.03227830344325011           0.6230025115545526 1.0000   
         C         C         1.0       0.5481494963534982  0.02766220182248591           0.6152924747454613 1.0000   
         C         C         1.0       0.5525359971135965  0.025070402819001192         0.5858188356074782 1.0000   
         C         C         1.0       0.5342539839374961  0.0260087296403122  0.5653402928732014 1.0000   
         C         C         1.0       0.5099353664410543  0.02689890544344209           0.5743221574204275 1.0000   
         C         C         1.0       0.45105620692884263           0.03611295088834954          0.6563009007749429 1.0000   
         C         C         1.0       0.43657735392846436           0.025952966536814337         0.6830077745848484 1.0000   
         C         C         1.0       0.43833706477954876           0.0045938281732107455        0.6961658573345891 1.0000   
         C         C         1.0       0.45203054724853226           0.9915808838616997 0.6828327907344741 1.0000   
         C         C         1.0       0.46058880464489677           0.9990936496053606 0.6543713462567478 1.0000   
         C         C         1.0       0.4639529650070347  0.023523152424891558         0.6407418961153893 1.0000   
         C         C         1.0       0.4312004480404543  0.9999111105816024  0.7305816208884831 1.0000   
         C         C         1.0       0.518643906098147   0.07725532766395782           0.7482756323655636 1.0000   
         C         C         1.0       0.4933480317601907  0.07789675261923645           0.7533827814354543 1.0000   
         C         C         1.0       0.4654015179326613  0.05350525038089726           0.7486439482795794 1.0000   
         C         C         1.0       0.46275171048015434           0.028141766036950733         0.7405514615970602 1.0000   
         C         C         1.0       0.487936166702481   0.027035475367842343         0.7376271046214666 1.0000   
         C         C         1.0       0.5156129868273853  0.0503243606101531  0.7398714014232866 1.0000   
         C         C         1.0       0.42479475971111086           0.9693196822668082 0.7435193170113911 1.0000   
         C         C         1.0       0.4034147705217079  0.9432413452054986  0.7315525751872658 1.0000   
         C         C         1.0       0.3957756295463139  0.916215949140983   0.7424505384689235 1.0000   
         C         C         1.0       0.40947556645575794           0.9163072372084964 0.7678633122380896 1.0000   
         C         C         1.0       0.433760548983804   0.9425438909177252  0.778690249262005  1.0000   
         C         C         1.0       0.4405388629008465  0.968199881643389   0.767756694897429  1.0000   
         C         C         1.0       0.39661078683709    0.007909781404864535         0.7655347243786863 1.0000   
         C         C         1.0       0.3687627909363635  0.005354608462984745         0.7724829392320272 1.0000   
         C         C         1.0       0.34574828230599775           0.995731086121681  0.7529179174228116 1.0000   
         C         C         1.0       0.35131824077604046           0.9883110465252354 0.7253009814511586 1.0000   
         C         C         1.0       0.376325280833323   0.9874001875912031  0.7196010835721103 1.0000   
         C         C         1.0       0.4010737725289895  0.9991095694326141  0.7391579133063966 1.0000   
         H         H         1.0       0.4988716905360237  0.9807978983400868  0.0537219687161663 1.0000   
         H         H         1.0       0.5113586704813717  0.07354239847312538           0.6584254129440582 1.0000   
         H         H         1.0       0.5535978980479683  0.12263150780053012           0.6605083591738451 1.0000   
         H         H         1.0       0.5269847787120758  0.002851722844074978         0.01058843155990008          1.0000   
         H         H         1.0       0.5244188761914571  0.037133385448552714         0.6442628119000713 1.0000   
         H         H         1.0       0.5664057300314604  0.032456901646372716         0.6315466247292859 1.0000   
         H         H         1.0       0.561280363912588   0.9951566694648352  0.12659416492996178          1.0000   
         H         H         1.0       0.49465836061382545           0.02652561888439786          0.5582476446059699 1.0000   
         H         H         1.0       0.44993384771869416           0.05375464296487853          0.6468829109285958 1.0000   
         H         H         1.0       0.4258680725956184  0.034818442279549666         0.6934854638445723 1.0000   
         H         H         1.0       0.4573368327667473  0.9772519726914787  0.6944822546851319 1.0000   
         H         H         1.0       0.4678985469482801  0.9871782434522809  0.6436847193918628 1.0000   
         H         H         1.0       0.4967937478234326  0.09869147122918158           0.7619024392260086 1.0000   
         H         H         1.0       0.4466732894833629  0.05590670760882354           0.7451545935485407 1.0000   
         H         H         1.0       0.48625956324004127           0.00581058334085105          0.7341680988490866 1.0000   
         H         H         1.0       0.5364032991697097  0.04970601340129677           0.7382603846997651 1.0000   
         H         H         1.0       0.3898401635417706  0.9381737801309225  0.7121887915400498 1.0000   
         H         H         1.0       0.3756956130784335  0.8973006843052899  0.7332173827365386 1.0000   
         H         H         1.0       0.4479626823075924  0.9440447541873187  0.795247934626637  1.0000   
         H         H         1.0       0.4545930846795693  0.9869958564139684  0.7815452616548602 1.0000   
         H         H         1.0       0.4159147966405418  0.01694063469260043           0.7797391956163404 1.0000   
         H         H         1.0       0.3673340492303367  0.012647995415705937         0.7937086628929299 1.0000   
         H         H         1.0       0.33575086504812635           0.9834568033955781 0.707500677480412  1.0000   
         H         H         1.0       0.3763981613984979  0.9817644662174358  0.6977225879755653 1.0000   
         C         C         1.0       0.3871272495524558  0.8945963148764953  0.8365055016985486 1.0000   
         C         C         1.0       0.39231177631368686           0.8795538258222957 0.8572899602435569 1.0000   
         C         C         1.0       0.40239619598682264           0.8918053170267723 0.8844817619527127 1.0000   
         C         C         1.0       0.41037738393436474           0.9212560436529429 0.8895705820834093 1.0000   
         C         C         1.0       0.4025810540311638  0.9344340449974479  0.8683556358870574 1.0000   
         C         C         1.0       0.3895736191417576  0.920289203649738   0.8430938618400975 1.0000   
         H         H         1.0       0.3892044858572601  0.8588300656543846  0.850273376140774  1.0000   
         H         H         1.0       0.40877585125444227           0.8799931296969393 0.8979586019680003 1.0000   
         H         H         1.0       0.4040177700270488  0.9536364726966307  0.8733682727639323 1.0000   
         H         H         1.0       0.3833011102941265  0.9298897831105348  0.8275280445744259 1.0000   
         C         C         1.0       0.46026710731270454           0.9891359800127685 0.9007800955434583 1.0000   
         C         C         1.0       0.44089949609953905           0.9715840796443364 0.9227369422357556 1.0000   
         C         C         1.0       0.4394448049731694  0.9867599240734564  0.9466763892783675 1.0000   
         C         C         1.0       0.45544862746404563           0.017417983286214245         0.9492536466778897 1.0000   
         C         C         1.0       0.4736801272617072  0.033548659175478335         0.9261075652033071 1.0000   
         C         C         1.0       0.47523831973306885           0.019450416136886247         0.9015030914797921 1.0000   
         C         C         1.0       0.42317612185476733           0.936621841494626  0.9208177027500434 1.0000   
         C         C         1.0       0.44964937218422313           0.9341947164815421 0.9310688761028082 1.0000   
         C         C         1.0       0.46038151577276726           0.9416866552856175 0.9587348623811466 1.0000   
         C         C         1.0       0.4851806994791139  0.9420203447201867  0.9682164274928491 1.0000   
         C         C         1.0       0.5027202286400809  0.9374893995502745  0.9478697403721372 1.0000   
         C         C         1.0       0.4933639261948048  0.9319376783673208  0.9207928276201034 1.0000   
         C         C         1.0       0.4669369923266264  0.9295416512750548  0.9117125050865484 1.0000   
         C         C         1.0       0.37341455971255644           0.9312723351861184 0.9354424264304118 1.0000   
         C         C         1.0       0.3552675212995186  0.9292046107124706  0.9578368595238546 1.0000   
         C         C         1.0       0.3525952671812642  0.9158865174199347  0.9838171429573336 1.0000   
         C         C         1.0       0.37101428767016487           0.9040262188200672 0.9862635117420621 1.0000   
         C         C         1.0       0.38653207074854184           0.903636452797369  0.9638465576915113 1.0000   
         C         C         1.0       0.392359028402742   0.9211931602008636  0.9395738611231506 1.0000   
         C         C         1.0       0.33641832400313154           0.9225331757893609 0.009519162904262801         1.0000   
         C         C         1.0       0.3995253821199991  0.020055309846664034         0.003566755907829622         1.0000   
         C         C         1.0       0.37078983654637343           0.006579808062333823         0.9936811855679755 1.0000   
         C         C         1.0       0.3499943248256502  0.9758902700604359  0.9975855385941592 1.0000   
         C         C         1.0       0.3569752304721513  0.9581452941429873  0.0109447429551226 1.0000   
         C         C         1.0       0.3867798258735895  0.9726054512246882  0.02066946228605593          1.0000   
         C         C         1.0       0.4075159722924786  0.0032590304677553306        0.01757635387114287          1.0000   
         C         C         1.0       0.3358148379061852  0.9063795047651986  0.03917032053588465          1.0000   
         C         C         1.0       0.32427787335695407           0.8754940929643998 0.041527798699718455         1.0000   
         C         C         1.0       0.32824551685109415           0.8639344189994033 0.06588328997502724          1.0000   
         C         C         1.0       0.3419882904374302  0.8804122902160042  0.08964807858395196          1.0000   
         C         C         1.0       0.3493883113075636  0.9089743902807904  0.08980781685072281          1.0000   
         C         C         1.0       0.34451442224698176           0.9210359980504123 0.06523974642507402          1.0000   
         C         C         1.0       0.2855898087960436  0.9197568527483246  0.019298707502676038         1.0000   
         C         C         1.0       0.25478382792667964           0.9078793389044585 0.015281978976023902         1.0000   
         C         C         1.0       0.2381315171314937  0.8837996482739472  6.979741762336289e-08        1.0000   
         C         C         1.0       0.25164272958948114           0.8717958493229884 0.9836099091378241 1.0000   
         C         C         1.0       0.2829769652501267  0.8844033483502308  0.9861642180914018 1.0000   
         C         C         1.0       0.3000347085610523  0.9085790359970173  0.0034427513908630303        1.0000   
         H         H         1.0       0.46222721047610277           0.9788743782384085 0.8820464480571101 1.0000   
         H         H         1.0       0.4264881234306122  0.9746400375511496  0.9659267887824968 1.0000   
         H         H         1.0       0.4531904936823289  0.02776400975624904           0.9677724545761154 1.0000   
         H         H         1.0       0.4898140645477825  0.032138338735539396         0.8837317158709425 1.0000   
         H         H         1.0       0.44754913512773803           0.9457784066866979 0.973277276922132  1.0000   
         H         H         1.0       0.49374153165530826           0.9453843489848953 0.9904660023390378 1.0000   
         H         H         1.0       0.5071694982552669  0.9293772859963619  0.9046705556496251 1.0000   
         H         H         1.0       0.46246503428597346           0.9253779880665765 0.8886589475305714 1.0000   
         H         H         1.0       0.3773313784947713  0.9464389457911981  0.9188014548657041 1.0000   
         H         H         1.0       0.3437263117379738  0.9404824454835662  0.9541819447150567 1.0000   
         H         H         1.0       0.37229179582772437           0.8932050352042169 0.005240076891027012         1.0000   
         H         H         1.0       0.39937653254703565           0.8934688801818673 0.9644978799358476 1.0000   
         H         H         1.0       0.3637783447904494  0.020799652598851415         0.9852223604381029 1.0000   
         H         H         1.0       0.3280215586708727  0.9652128772715287  0.9890377150883078 1.0000   
         H         H         1.0       0.39529250216330797           0.9603103969897238 0.02880118234377571          1.0000   
         H         H         1.0       0.42904325197759574           0.015266327342646102         0.027328259838415025         1.0000   
         H         H         1.0       0.3120645816253963  0.8607016446338414  0.023283340067274505         1.0000   
         H         H         1.0       0.32336277504789873           0.8419479241113885 0.06343543227552195          1.0000   
         H         H         1.0       0.35940380447904413           0.9214704099946617 0.10887524849719732          1.0000   
         H         H         1.0       0.3506548578344178  0.9435153684005878  0.06796330679026052          1.0000   
         H         H         1.0       0.29716497817083615           0.9388860762958828 0.0349164558853432 1.0000   
         H         H         1.0       0.24307429144182227           0.9167797061272084 0.027786213879206434         1.0000   
         H         H         1.0       0.23714749807102345           0.8540961866605585 0.96819497215699   1.0000   
         H         H         1.0       0.29435413534462723           0.8775813165572066 0.972716676796711  1.0000   
         C         C         1.0       0.7585601737932905  0.5694074728690206  0.7431371421732033 1.0000   
         C         C         1.0       0.7606560035561866  0.5772760733190874  0.7149462369470498 1.0000   
         C         C         1.0       0.7451772903807146  0.5892812750870745  0.7064289377837366 1.0000   
         C         C         1.0       0.7293991708874323  0.5961363587740965  0.7251283849047978 1.0000   
         C         C         1.0       0.7298738029903752  0.5895222599650355  0.7544887445110073 1.0000   
         C         C         1.0       0.7449888083924949  0.5777231375190074  0.7626034364583933 1.0000   
         H         H         1.0       0.7743892463737729  0.5746105524550424  0.699733417251251  1.0000   
         H         H         1.0       0.748366921881912   0.5961208165806485  0.6835377852306064 1.0000   
         H         H         1.0       0.7202741344471566  0.5944861697464437  0.7701358689113689 1.0000   
         H         H         1.0       0.7482636418632349  0.5769345116375627  0.7840612368690959 1.0000   
         C         C         1.0       0.6640680293228416  0.581174692254334   0.7404625927552362 1.0000   
         C         C         1.0       0.6882552470469848  0.609980193171011   0.7328338008248232 1.0000   
         C         C         1.0       0.6834877307574955  0.6326235833076084  0.7399522228349052 1.0000   
         C         C         1.0       0.6572982797731353  0.6263932996902414  0.7522390243019246 1.0000   
         C         C         1.0       0.6345047943100753  0.5985679362002839  0.7574708275098258 1.0000   
         C         C         1.0       0.6371251713432331  0.5754841756815489  0.7527175017027081 1.0000   
         C         C         1.0       0.7153231188195257  0.613704315406372   0.7143485520927878 1.0000   
         C         C         1.0       0.697937421714257   0.6058628882923263  0.6841266750700301 1.0000   
         C         C         1.0       0.6917732405536561  0.6252049926811464  0.669487464183962  1.0000   
         C         C         1.0       0.6738494268894647  0.6161128406882249  0.646144548900023  1.0000   
         C         C         1.0       0.6619504674734307  0.5885374703956522  0.6345076711972436 1.0000   
         C         C         1.0       0.6699571112538552  0.570855441002124   0.6465818251668266 1.0000   
         C         C         1.0       0.688600986554797   0.5799715133897242  0.6701598914711409 1.0000   
         C         C         1.0       0.7585598863311748  0.663088436016971   0.7374374172977849 1.0000   
         C         C         1.0       0.7879221912873862  0.6869588986401872  0.7376388454399593 1.0000   
         C         C         1.0       0.8057219311378462  0.6968498801197227  0.7115010313714685 1.0000   
         C         C         1.0       0.791708242203242   0.6835432014258661  0.6861950396354316 1.0000   
         C         C         1.0       0.7634978801592448  0.6571539026204103  0.6869580459004693 1.0000   
         C         C         1.0       0.7456174955323578  0.6470708637739431  0.7120596264842023 1.0000   
         C         C         1.0       0.8432344765265787  0.720660814511193   0.7125820480697262 1.0000   
         C         C         1.0       0.83639791003193    0.7948931335790577  0.7031078676952323 1.0000   
         C         C         1.0       0.8373501713068541  0.7869191168670736  0.7304345988935681 1.0000   
         C         C         1.0       0.8400293810936857  0.7633576108332399  0.7343797396125976 1.0000   
         C         C         1.0       0.8427785727765517  0.7492626183752761  0.7110779351972979 1.0000   
         C         C         1.0       0.8406624345615645  0.7580489606801841  0.6829658588670501 1.0000   
         C         C         1.0       0.8387789587434338  0.7810237405158724  0.679308104912096  1.0000   
         C         C         1.0       0.8643137346484597  0.7180195062702206  0.6889619906125058 1.0000   
         C         C         1.0       0.8556555502048284  0.6912434844429153  0.6784813484412017 1.0000   
         C         C         1.0       0.8708404219163993  0.6892505096001719  0.6552936282074747 1.0000   
         C         C         1.0       0.8951307827113123  0.7133144150625037  0.6426487057211583 1.0000   
         C         C         1.0       0.9054008937238274  0.7401620084529362  0.6538233140753058 1.0000   
         C         C         1.0       0.8917156146130256  0.7431203032515828  0.6778046093919763 1.0000   
         C         C         1.0       0.8858862354443505  0.7428883248499399  0.7520610479559411 1.0000   
         C         C         1.0       0.9074155217833373  0.7404008540560786  0.7648856589729423 1.0000   
         C         C         1.0       0.9035913969461085  0.713185287248482   0.769575796504716  1.0000   
         C         C         1.0       0.8756812276873326  0.6878677965654955  0.7632299486666878 1.0000   
         C         C         1.0       0.8543657138198104  0.6905615233018924  0.7481192090580778 1.0000   
         C         C         1.0       0.8603391357604564  0.7179104682400138  0.7394742630798605 1.0000   
         H         H         1.0       0.6667288389542291  0.5629074858355066  0.7390548596328819 1.0000   
         H         H         1.0       0.6993832300313291  0.6548012225477069  0.733371860686744  1.0000   
         H         H         1.0       0.6528174054643076  0.6442213633796054  0.757178256496793  1.0000   
         H         H         1.0       0.6159994496733359  0.553132379485999   0.7541223982968889 1.0000   
         H         H         1.0       0.6998433292215384  0.6471901813789488  0.6782403469854056 1.0000   
         H         H         1.0       0.6684147856824999  0.6310335960603924  0.6386077881233565 1.0000   
         H         H         1.0       0.6617945508840855  0.5492297488935522  0.6386416880193015 1.0000   
         H         H         1.0       0.6945753387100563  0.5658830551878598  0.6787314394754576 1.0000   
         H         H         1.0       0.7492297725471765  0.6544577365168566  0.757523700823194  1.0000   
         H         H         1.0       0.7986847077372485  0.6982445499394719  0.7568670537791342 1.0000   
         H         H         1.0       0.803881707243092   0.688779113893882   0.666558087896025  1.0000   
         H         H         1.0       0.7544349160467768  0.6419773384117282  0.6686688169013113 1.0000   
         H         H         1.0       0.8294415818481108  0.7921591933444131  0.7490021588810687 1.0000   
         H         H         1.0       0.8392649428956896  0.7562197388268856  0.7569286034397169 1.0000   
         H         H         1.0       0.8414968507558338  0.7457705299017822  0.663416184181623  1.0000   
         H         H         1.0       0.8405105995303428  0.7881762035186721  0.6575209204106597 1.0000   
         H         H         1.0       0.8343499029192618  0.67085418922159    0.6857489684155621 1.0000   
         H         H         1.0       0.8592885468873755  0.6684206218610668  0.64484221855229   1.0000   
         H         H         1.0       0.9236439892201771  0.7602779963447751  0.6440718169537671 1.0000   
         H         H         1.0       0.8984018765187424  0.7650952073651323  0.6829968034359803 1.0000   
         H         H         1.0       0.8931477059178526  0.7650917119265782  0.7461559642130866 1.0000   
         H         H         1.0       0.924682240543083   0.7604584954252219  0.7741934692386409 1.0000   
         H         H         1.0       0.8712648857815507  0.6661108685801581  0.7676367372288895 1.0000   
         H         H         1.0       0.8331619024758893  0.6700799914056577  0.741564026712538  1.0000   
         C         C         1.0       0.7639459174652806  0.559768773170458   0.0482091006335581 1.0000   
         C         C         1.0       0.7368807289868109  0.5411890965295478  0.03299838051460213          1.0000   
         C         C         1.0       0.7268485869827117  0.5535825190075272  0.014393247861389957         1.0000   
         C         C         1.0       0.7421635837459175  0.5830834977860995  0.0089796218737217 1.0000   
         C         C         1.0       0.7711209704468773  0.6007370229078389  0.020109038169960458         1.0000   
         C         C         1.0       0.7812299204913152  0.5893122603458453  0.039715963110307895         1.0000   
         H         H         1.0       0.7230163915451482  0.5181491064847615  0.03935450961855991          1.0000   
         H         H         1.0       0.7052946467714342  0.5380335869856214  0.0057061842662669005        1.0000   
         H         H         1.0       0.780183442645862   0.6226987465514143  0.019461143179506646         1.0000   
         H         H         1.0       0.800219158639234   0.6034735671019619  0.05315655764459137          1.0000   
         C         C         1.0       0.7243388525302981  0.6238182705214446  0.031654793890225186         1.0000   
         C         C         1.0       0.7333715712251726  0.6254091166790667  0.002459998612624581         1.0000   
         C         C         1.0       0.7406521533946502  0.6504320684164828  0.9863892433297821 1.0000   
         C         C         1.0       0.7354284173154142  0.6699725741837697  0.9977037820769352 1.0000   
         C         C         1.0       0.7230683494056119  0.6659114425342039  0.025588011575855107         1.0000   
         C         C         1.0       0.7186700956779889  0.6430796507142511  0.043518637566833274         1.0000   
         C         C         1.0       0.7314713479952816  0.5984276758542048  0.9872318280683664 1.0000   
         C         C         1.0       0.6984058289012123  0.5821482689130437  0.9780279459630994 1.0000   
         C         C         1.0       0.6927339893680897  0.5911226509530225  0.9507756534347772 1.0000   
         C         C         1.0       0.6639912464139     0.5819498613873054  0.9429523232760213 1.0000   
         C         C         1.0       0.6393696879198213  0.5603602386281459  0.9596328568578306 1.0000   
         C         C         1.0       0.6437941726578708  0.5499155192872509  0.9843904603986963 1.0000   
         C         C         1.0       0.6733014904073942  0.5614048844819487  0.994084977558185  1.0000   
         C         C         1.0       0.7792420545898467  0.6293272512451358  0.9529934879723696 1.0000   
         C         C         1.0       0.7982793955189236  0.6321154143308856  0.9304917990328968 1.0000   
         C         C         1.0       0.7903052206413986  0.607626538841784   0.9131472122198157 1.0000   
         C         C         1.0       0.7651826150885583  0.5800708696453117  0.9212741732577491 1.0000   
         C         C         1.0       0.747020811606322   0.5788443418746503  0.9438461192083561 1.0000   
         C         C         1.0       0.7533337645513901  0.6025147580690493  0.9602947017400968 1.0000   
         C         C         1.0       0.81085977311465    0.6134375976713079  0.8859009713329652 1.0000   
         C         C         1.0       0.8226629085577544  0.6897301008888935  0.8372709812534583 1.0000   
         C         C         1.0       0.8487117590585478  0.688463451174043   0.8406275576393225 1.0000   
         C         C         1.0       0.8448735154532232  0.6644293822706729  0.8555637582805273 1.0000   
         C         C         1.0       0.8174903503510662  0.6431763559055814  0.8704685333401632 1.0000   
         C         C         1.0       0.79302732228134    0.6462021309015519  0.8649533595747796 1.0000   
         C         C         1.0       0.7950367155023241  0.6683363246192947  0.8477759428947819 1.0000   
         C         C         1.0       0.797004317850715   0.589967906463499   0.8594186040232761 1.0000   
         C         C         1.0       0.8157693511691492  0.5898547953470754  0.8394900511688833 1.0000   
         C         C         1.0       0.8051689714078237  0.5721412452144219  0.8152572214343562 1.0000   
         C         C         1.0       0.7745027967963956  0.5551333493643791  0.8103341190020537 1.0000   
         C         C         1.0       0.7548294891886234  0.5554256683843044  0.8299011643207117 1.0000   
         C         C         1.0       0.7658051969278729  0.5734297105944326  0.8531362436591846 1.0000   
         C         C         1.0       0.8642174545127195  0.6391286349909037  0.9129536380901216 1.0000   
         C         C         1.0       0.8793354408576333  0.6366005816930254  0.936072877825377  1.0000   
         C         C         1.0       0.8729343564008235  0.6089015256059279  0.9436923913827286 1.0000   
         C         C         1.0       0.8520070994977647  0.5843040430622082  0.9290612380724895 1.0000   
         C         C         1.0       0.8347962695610875  0.5863391131815232  0.9077529370639806 1.0000   
         C         C         1.0       0.8376679240260209  0.6132817405857469  0.9020063462074822 1.0000   
         H         H         1.0       0.715022150328365   0.6039296127990338  0.044187022007536214         1.0000   
         H         H         1.0       0.7481043934495606  0.6544294848436869  0.9634005630490997 1.0000   
         H         H         1.0       0.7417897902232882  0.6898390362923015  0.9862159786084522 1.0000   
         H         H         1.0       0.710181933063733   0.6398416632513743  0.06538455427320322          1.0000   
         H         H         1.0       0.7097733816713163  0.6058619984898121  0.9351088198799765 1.0000   
         H         H         1.0       0.6575930431104363  0.5870942217700065  0.9223931082750105 1.0000   
         H         H         1.0       0.6225042113657464  0.5351348722370622  0.9953368468229826 1.0000   
         H         H         1.0       0.6782320237741054  0.5577091642974197  0.014152556969681651         1.0000   
         H         H         1.0       0.7867984204503078  0.6490128217557525  0.9646955857593326 1.0000   
         H         H         1.0       0.818822426601649   0.6540453490929059  0.9273159468615672 1.0000   
         H         H         1.0       0.7592031768921447  0.5586679166764263  0.9120757136909373 1.0000   
         H         H         1.0       0.7275699396048944  0.5579628904657224  0.9503696747814028 1.0000   
         H         H         1.0       0.8711034375581646  0.7043834496081823  0.8318996133854504 1.0000   
         H         H         1.0       0.8646484625592572  0.6635859679970983  0.8536936294850573 1.0000   
         H         H         1.0       0.768931775142068   0.6280190509559148  0.8714034729563285 1.0000   
         H         H         1.0       0.7744025853231418  0.6689003235761561  0.8468387586111389 1.0000   
         H         H         1.0       0.8389029197967286  0.6045770263984218  0.8415724093025092 1.0000   
         H         H         1.0       0.8207511473530122  0.5723066242838356  0.7993421092231838 1.0000   
         H         H         1.0       0.730450977859694   0.5416019149551738  0.8284296631401877 1.0000   
         H         H         1.0       0.7491110714969738  0.5747037536924473  0.8663865432196123 1.0000   
         H         H         1.0       0.8667695181195358  0.6596654384705071  0.909320489832148  1.0000   
         H         H         1.0       0.8952655449903831  0.6553610314406971  0.95105932185448   1.0000   
         H         H         1.0       0.8491503898851651  0.5641804107976137  0.9326951808951649 1.0000   
         H         H         1.0       0.814204274619599   0.5657499198135175  0.8984750383927568 1.0000   
         C         C         1.0       0.5954178905837318  0.38762462109409296           0.6207908532517836 1.0000   
         C         C         1.0       0.614253073850525   0.40921167618227017           0.6398205015053009 1.0000   
         C         C         1.0       0.6026085899759784  0.4242848341300773  0.652457693026753  1.0000   
         C         C         1.0       0.5727097910213386  0.41653742934251875           0.6480886436339759 1.0000   
         C         C         1.0       0.5530118991321258  0.3901181797769742  0.6340174187157939 1.0000   
         C         C         1.0       0.5655032918818506  0.3763076476422937  0.6208583124800217 1.0000   
         H         H         1.0       0.6378899569888055  0.4171134147140612  0.6406169900884672 1.0000   
         H         H         1.0       0.6187587405535717  0.44437413060813125           0.6640516280229869 1.0000   
         H         H         1.0       0.5293356021768655  0.38158455934742663           0.6301540350780311 1.0000   
         H         H         1.0       0.5501813918077044  0.356727577131138   0.6069907514914132 1.0000   
         C         C         1.0       0.5266315659438395  0.43225111692669343           0.6222582834269651 1.0000   
         C         C         1.0       0.5320538646723043  0.43078300513174855           0.651784368646914  1.0000   
         C         C         1.0       0.514814061109332   0.43514636983947486           0.6709205188928413 1.0000   
         C         C         1.0       0.4949872334385435  0.4426674020926112  0.6646866516859928 1.0000   
         C         C         1.0       0.4929036532721642  0.4472625465873513  0.6357134676192358 1.0000   
         C         C         1.0       0.5095763005436602  0.4426449222903719  0.6140302034979941 1.0000   
         C         C         1.0       0.5623329563116842  0.4351899561622906  0.6635484414709688 1.0000   
         C         C         1.0       0.5838240907964373  0.4710750117457128  0.6595595329327374 1.0000   
         C         C         1.0       0.5826323514675941  0.4904249351225481  0.6773489588714047 1.0000   
         C         C         1.0       0.589024890184385   0.5171707317423689  0.6652493466626682 1.0000   
         C         C         1.0       0.5965286833322384  0.5243029777295817  0.6367589670466688 1.0000   
         C         C         1.0       0.6010366897935522  0.5054248551489419  0.6202085479069825 1.0000   
         C         C         1.0       0.597739873195182   0.4809384329553887  0.6333247754228887 1.0000   
         C         C         1.0       0.534799245824761   0.39359183280322835           0.7012547461322436 1.0000   
         C         C         1.0       0.5318148951847488  0.3818926338193928  0.7277186220356774 1.0000   
         C         C         1.0       0.5540198289947387  0.39547704580508275           0.7494343450637426 1.0000   
         C         C         1.0       0.5798447252386714  0.4236556422117574  0.742848972424321  1.0000   
         C         C         1.0       0.5809171336376306  0.43683929077404765           0.7164824815294606 1.0000   
         C         C         1.0       0.5585430299693407  0.4222518307847476  0.6955590798387637 1.0000   
         C         C         1.0       0.5469076530857079  0.380695253783148   0.7808471360569179 1.0000   
         C         C         1.0       0.5313939547079192  0.450163381349746   0.8041784631093268 1.0000   
         C         C         1.0       0.5120289503711781  0.42681403204256574           0.7863100142337142 1.0000   
         C         C         1.0       0.5136764754723295  0.4034164564020189  0.7833591904310913 1.0000   
         C         C         1.0       0.5347017684142743  0.4005754608706987  0.7958452993941233 1.0000   
         C         C         1.0       0.5518730886022718  0.42145664158587215           0.8161327795391762 1.0000   
         C         C         1.0       0.5480216049249788  0.44420412437342116           0.8206604809228432 1.0000   
         C         C         1.0       0.5721152319818474  0.3814561666550803  0.800620909371674  1.0000   
         C         C         1.0       0.6005688324621805  0.390741988640898   0.7899560354391516 1.0000   
         C         C         1.0       0.6199704536977092  0.3872316939671136  0.8059346302209298 1.0000   
         C         C         1.0       0.6121091731387975  0.3740921904143804  0.8331251778928771 1.0000   
         C         C         1.0       0.583056157669046   0.3627190241775255  0.8428972650929446 1.0000   
         C         C         1.0       0.5636363442979598  0.36652320974884506           0.8268915182740608 1.0000   
         C         C         1.0       0.4904131854820885  0.3323240400307683  0.7824573557365844 1.0000   
         C         C         1.0       0.4698486163311976  0.3063203492998383  0.7694330816460903 1.0000   
         C         C         1.0       0.47962344069337653           0.29298057246283954          0.7504084826545204 1.0000   
         C         C         1.0       0.5102647842592587  0.3049409462151401  0.7472690349182297 1.0000   
         C         C         1.0       0.5319324936685583  0.32951793131701224           0.7609245108921541 1.0000   
         C         C         1.0       0.5228396637977379  0.3461637249880415  0.7764656988657545 1.0000   
         H         H         1.0       0.5425207536433084  0.43125184372463937           0.6079432426736658 1.0000   
         H         H         1.0       0.5207125230347609  0.43604354247694765           0.6934078977109153 1.0000   
         H         H         1.0       0.48006717341470395           0.4447880687877986 0.6793980524042851 1.0000   
         H         H         1.0       0.5088788653468402  0.44842656245105705           0.5922916153275434 1.0000   
         H         H         1.0       0.5736940670595869  0.48305138658391944           0.6989039929585407 1.0000   
         H         H         1.0       0.5851972567974643  0.5293081944508525  0.6803411370659144 1.0000   
         H         H         1.0       0.6124818612674676  0.5138745847394655  0.5993205097421458 1.0000   
         H         H         1.0       0.6038719238326105  0.46828743113042565           0.6208838037968489 1.0000   
         H         H         1.0       0.5162773150601399  0.38024816693526164           0.6863646197392529 1.0000   
         H         H         1.0       0.510479073057658   0.363624382342389   0.7310542332481258 1.0000   
         H         H         1.0       0.6000878298329454  0.436700703416896   0.7552760884386456 1.0000   
         H         H         1.0       0.6034482348327279  0.4572688622783571  0.7124300995836508 1.0000   
         H         H         1.0       0.49366187190792454           0.42700751005173726          0.7743972774689432 1.0000   
         H         H         1.0       0.5015244300506345  0.3862810409740774  0.7671997940207662 1.0000   
         H         H         1.0       0.5676986812859631  0.42055948795065307           0.8289505034596371 1.0000   
         H         H         1.0       0.5584843619646851  0.45924119422328247           0.8369471763882224 1.0000   
         H         H         1.0       0.6062510620808486  0.39893588672235514           0.7684232788153778 1.0000   
         H         H         1.0       0.6403489743951079  0.3944471699203269  0.7951841402356887 1.0000   
         H         H         1.0       0.5746797860902728  0.3483197800857493  0.8610531956173652 1.0000   
         H         H         1.0       0.5404905449490757  0.3573246391338767  0.8330924781731701 1.0000   
         H         H         1.0       0.48351895699709746           0.3426799035151562 0.797173251038142  1.0000   
         H         H         1.0       0.445939052456541   0.29770920474906654           0.7747949004732296 1.0000   
         H         H         1.0       0.5196910054075857  0.29478031559516127           0.7331864995547992 1.0000   
         H         H         1.0       0.5547236506120936  0.3391620472758699  0.7571630085935589 1.0000   
         C         C         1.0       0.6353394352715581  0.4003097621085243  0.8914252415612903 1.0000   
         C         C         1.0       0.6444190737389722  0.42892786567689384           0.8937878612697686 1.0000   
         C         C         1.0       0.6279429230499964  0.43629412314031923           0.9106869202398391 1.0000   
         C         C         1.0       0.6008369974463066  0.4156385942802241  0.9237355895585689 1.0000   
         C         C         1.0       0.5908452890401407  0.38558316323539993           0.9198059622730193 1.0000   
         C         C         1.0       0.6096283530260848  0.3789045137372931  0.9062210955244142 1.0000   
         H         H         1.0       0.6659620758516793  0.4463243482761914  0.8853711993923549 1.0000   
         H         H         1.0       0.6370150632599783  0.45918113902970137           0.916577031844155  1.0000   
         H         H         1.0       0.5698258265522457  0.36789764126014407           0.9298080901514607 1.0000   
         H         H         1.0       0.6010418450499181  0.35536540884047546           0.905288185641902  1.0000   
         C         C         1.0       0.5420822796258415  0.39747169128411947           0.8984882203154748 1.0000   
         C         C         1.0       0.5457648435691851  0.4029064997396373  0.9281007911954935 1.0000   
         C         C         1.0       0.5206863293458726  0.3954659856731785  0.9454589565010081 1.0000   
         C         C         1.0       0.4946592583297965  0.38994627512434615           0.9318671526278803 1.0000   
         C         C         1.0       0.4922394176322537  0.3858055561040656  0.9026718330447814 1.0000   
         C         C         1.0       0.5148966070659547  0.38819602164466    0.8860193011413156 1.0000   
         C         C         1.0       0.5788177717284606  0.4216895943674879  0.9406684873965652 1.0000   
         C         C         1.0       0.5835281445714761  0.454170147115999   0.9366301863308253 1.0000   
         C         C         1.0       0.5735648394780207  0.46447639546222824           0.9580693327250013 1.0000   
         C         C         1.0       0.5740306842212378  0.4892983803656534  0.9539519246503796 1.0000   
         C         C         1.0       0.5857243179917507  0.5050951718868575  0.9296903878963384 1.0000   
         C         C         1.0       0.5975846442956405  0.49572506905205144           0.9096165569919373 1.0000   
         C         C         1.0       0.5949477004723147  0.46938117242699073           0.9113926704962191 1.0000   
         C         C         1.0       0.5632420979626667  0.3869839781806572  0.9849465867263085 1.0000   
         C         C         1.0       0.5617362283953498  0.3839818134586877  0.014973141303189275         1.0000   
         C         C         1.0       0.5815211734325213  0.4069565891683326  0.032452535615253186         1.0000   
         C         C         1.0       0.6040685394061226  0.433104731707856   0.018346645182733656         1.0000   
         C         C         1.0       0.6040006230982344  0.43611582113216096           0.988984157286844  1.0000   
         C         C         1.0       0.5821702248710819  0.41410936772989104           0.9726959509881808 1.0000   
         C         C         1.0       0.5767146689236016  0.40683940818608244           0.06705370924868981          1.0000   
         C         C         1.0       0.5307416364847336  0.45384219927141894           0.0710794432172539 1.0000   
         C         C         1.0       0.5166369318819364  0.4258137481825317  0.06403429539647765          1.0000   
         C         C         1.0       0.5312313426703862  0.41176429532560643           0.05971517918112057          1.0000   
         C         C         1.0       0.5612395600789546  0.4246979059445982  0.06658281122288212          1.0000   
         C         C         1.0       0.5769604957242631  0.4552822771399708  0.07283403745056627          1.0000   
         C         C         1.0       0.561495228968634   0.4694498552440692  0.07491830504064412          1.0000   
         C         C         1.0       0.5645403110506142  0.41895839661539713           0.5358407707845522 1.0000   
         C         C         1.0       0.5651333919420775  0.3945209059049683  0.5271546460730083 1.0000   
         C         C         1.0       0.5843390256070192  0.38806662551084925           0.5380196399695251 1.0000   
         C         C         1.0       0.605879237701327   0.40717155725357684           0.5583947428546668 1.0000   
         C         C         1.0       0.6048378343902953  0.4312337766340379  0.5678693725579438 1.0000   
         C         C         1.0       0.5853634380825153  0.4375624188173486  0.5558017162773081 1.0000   
         C         C         1.0       0.5019093407479431  0.38686811305968516           0.5511072353735432 1.0000   
         C         C         1.0       0.47496800522709526           0.36049102555219786          0.5574882055622966 1.0000   
         C         C         1.0       0.45631078201554265           0.34561299474581525          0.5348991607283348 1.0000   
         C         C         1.0       0.5409349460967019  0.3243841628525935  0.08895193739972385          1.0000   
         C         C         1.0       0.5587913132147763  0.3521805209162493  0.07574817183584881          1.0000   
         C         C         1.0       0.5565537069757809  0.376158353643406   0.08381538368827512          1.0000   
         H         H         1.0       0.5602848528288473  0.4037908295867479  0.8833360823542251 1.0000   
         H         H         1.0       0.5208179765126965  0.39847150077859045           0.9690118058546549 1.0000   
         H         H         1.0       0.4738899533099913  0.38114406631653175           0.9465881993614557 1.0000   
         H         H         1.0       0.5128573131293271  0.3838481640956066  0.8627153879234212 1.0000   
         H         H         1.0       0.5617157836262785  0.45144895952581576           0.977540476157959  1.0000   
         H         H         1.0       0.561904871080159   0.49505836938118036           0.9697199040842885 1.0000   
         H         H         1.0       0.607818814216721   0.5095019604635297  0.8898383387554596 1.0000   
         H         H         1.0       0.5989697663707598  0.4609871419191499  0.8923714373076989 1.0000   
         H         H         1.0       0.5469315618215695  0.36989461920831895           0.9721122274449306 1.0000   
         H         H         1.0       0.5435782256848948  0.36408910406183626           0.02645875915065088          1.0000   
         H         H         1.0       0.618689540123578   0.4524739932586956  0.03037061754892223          1.0000   
         H         H         1.0       0.6200672417548755  0.4576287161360654  0.9797491701079483 1.0000   
         H         H         1.0       0.4927208087908734  0.4147096938362552  0.05909972288700582          1.0000   
         H         H         1.0       0.5152911499918917  0.38791631627109424           0.056164277735447854         1.0000   
         H         H         1.0       0.6013443503900687  0.4685032600067302  0.07328406579294189          1.0000   
         H         H         1.0       0.5755040168833035  0.4930636667288806  0.08004705944569301          1.0000   
         H         H         1.0       0.6276339504762634  0.40512580040383633           0.05462090995969904          1.0000   
         H         H         1.0       0.5851698068394143  0.36869600479626147           0.5315760869401093 1.0000   
         H         H         1.0       0.6198384964292765  0.44553522414203234           0.5844472985922182 1.0000   
         H         H         1.0       0.5878534340023689  0.4578776795441026  0.5631746266301039 1.0000   
         H         H         1.0       0.5186562289320307  0.4008634082328277  0.5670256269507779 1.0000   
         H         H         1.0       0.47183945819216583           0.35410968515831376          0.578861854063794  1.0000   
         H         H         1.0       0.544804700274493   0.3075333742531112  0.08333918566512288          1.0000   
         H         H         1.0       0.5746497573501359  0.35495431078781964           0.05934134129879842          1.0000   
         C         C         1.0       0.3600750173245241  0.4840277352033339  0.9184487884866521 1.0000   
         C         C         1.0       0.38521766706318744           0.5116227212905557 0.9157622540572965 1.0000   
         C         C         1.0       0.4116924811823484  0.5146971480980721  0.9043732901857483 1.0000   
         C         C         1.0       0.41350730976354194           0.4901443747980849 0.8973930640123202 1.0000   
         C         C         1.0       0.38597113985492104           0.46208140385912927          0.8998034765083489 1.0000   
         C         C         1.0       0.3605347817925103  0.4600913438630035  0.9109165669246987 1.0000   
         H         H         1.0       0.38721245392547815           0.5315840288743283 0.9214730748869409 1.0000   
         H         H         1.0       0.431924100375674   0.5364419167595346  0.9016769041627577 1.0000   
         H         H         1.0       0.3818458514579272  0.43969631505531886           0.8951248522465713 1.0000   
         H         H         1.0       0.34109799905224764           0.4400351796394868 0.9152028303130825 1.0000   
         C         C         1.0       0.4358959975729742  0.45062621408652764           0.915841449484308  1.0000   
         C         C         1.0       0.44686794256692264           0.46582137524972417          0.8902222059921857 1.0000   
         C         C         1.0       0.4625964310680165  0.45788426069208293           0.8726332298818199 1.0000   
         C         C         1.0       0.46197304456233    0.43276324215329076           0.8764604680912024 1.0000   
         C         C         1.0       0.44503618425409014           0.4139427216528194 0.8993152497450121 1.0000   
         C         C         1.0       0.4351425289154163  0.4249497693842698  0.9200518378386007 1.0000   
         C         C         1.0       0.44288931990641783           0.4931115471223127 0.8863364105184555 1.0000   
         C         C         1.0       0.47243512117510483           0.5182525599004969 0.9028324927231692 1.0000   
         C         C         1.0       0.5001952971062602  0.5377364510440106  0.8888673102906034 1.0000   
         C         C         1.0       0.5233420538238563  0.5600258790097075  0.9038491209908722 1.0000   
         C         C         1.0       0.5208434880544652  0.5641663143198721  0.9321305497011951 1.0000   
         C         C         1.0       0.49503948259932135           0.544907973657336  0.9459959240774992 1.0000   
         C         C         1.0       0.47104461077847654           0.521948453526477  0.9318661826353702 1.0000   
         C         C         1.0       0.424706713109334   0.4766425236181145  0.8344197635403979 1.0000   
         C         C         1.0       0.42259739232236376           0.4815480444988948 0.8052475666488362 1.0000   
         C         C         1.0       0.436446987554021   0.5103047622750763  0.7954577559255099 1.0000   
         C         C         1.0       0.446697156594181   0.531872830296778   0.8167038176118356 1.0000   
         C         C         1.0       0.4484552835713237  0.526202177273803   0.8451300508704813 1.0000   
         C         C         1.0       0.4393259874443004  0.4984118381629171  0.8541786062091032 1.0000   
         C         C         1.0       0.447489234265307   0.5183397849566326  0.7623302422360524 1.0000   
         C         C         1.0       0.5229887433713684  0.5067913875655737  0.7706772410147744 1.0000   
         C         C         1.0       0.49970075402612046           0.4889577459089068 0.7526406493642301 1.0000   
         C         C         1.0       0.4760101138208433  0.49241849266857535           0.7470139066923489 1.0000   
         C         C         1.0       0.4757762324080636  0.5158318446311773  0.759371038795185  1.0000   
         C         C         1.0       0.5002601085910253  0.5350235583953438  0.77654587249485   1.0000   
         C         C         1.0       0.5233098922192119  0.5305691925075703  0.7834292838463964 1.0000   
         C         C         1.0       0.4526592010061622  0.5488455087592575  0.7549833669515567 1.0000   
         C         C         1.0       0.4287549906042343  0.5524101488664145  0.7615086580108341 1.0000   
         C         C         1.0       0.4304182512018823  0.5778364644271874  0.7555743142341693 1.0000   
         C         C         1.0       0.4524501148131822  0.5975063038171763  0.735922814294041  1.0000   
         C         C         1.0       0.47481248740685034           0.5930312109819749 0.7272937539914578 1.0000   
         C         C         1.0       0.4758031977541375  0.5699159206758898  0.7374200981985342 1.0000   
         C         C         1.0       0.4316218914024076  0.5011072931825137  0.7108020721290772 1.0000   
         C         C         1.0       0.41272556286958834           0.4844545052251791 0.6883448541884788 1.0000   
         C         C         1.0       0.38285500053305915           0.4641238088413728 0.6935627575103364 1.0000   
         C         C         1.0       0.3725246888845942  0.4596737861937403  0.722111440863268  1.0000   
         C         C         1.0       0.39156446365305464           0.47748052839224603          0.74378790719879   1.0000   
         C         C         1.0       0.42317289993183776           0.4975316880163878 0.7393756408200047 1.0000   
         H         H         1.0       0.42624484848305993           0.45659371489021433          0.9310807715831942 1.0000   
         H         H         1.0       0.4737917556600235  0.47108019459019845           0.8530760175234734 1.0000   
         H         H         1.0       0.4728356613444357  0.4242259635770554  0.8640197216033699 1.0000   
         H         H         1.0       0.42781061952075256           0.4156631500050882 0.940799464715701  1.0000   
         H         H         1.0       0.5040194765477732  0.5364692106861231  0.8662616985754968 1.0000   
         H         H         1.0       0.5464214154149333  0.5737199148052483  0.894188943497484  1.0000   
         H         H         1.0       0.49283561996917874           0.5479866261302928 0.9678750138243679 1.0000   
         H         H         1.0       0.45102225391785855           0.5043133652795236 0.9436602872836068 1.0000   
         H         H         1.0       0.41004267726952265           0.45336674882174   0.8400214147607614 1.0000   
         H         H         1.0       0.41416076805371793           0.46261542981973475          0.7902505421351043 1.0000   
         H         H         1.0       0.45706411389009816           0.5542709872332678 0.8134536617323271 1.0000   
         H         H         1.0       0.4594779379035507  0.5461492627753988  0.8567630772975343 1.0000   
         H         H         1.0       0.5006044495043888  0.47121372935351713           0.7448996347311614 1.0000   
         H         H         1.0       0.45758012770197437           0.4741629196107571 0.7358326964798434 1.0000   
         H         H         1.0       0.5015101581585195  0.5529840876915044  0.7882334734817659 1.0000   
         H         H         1.0       0.5378909223331656  0.5430819801975181  0.8012635511796591 1.0000   
         H         H         1.0       0.40832547537658814           0.5341157400444955 0.7721591319042936 1.0000   
         H         H         1.0       0.41314331851736347           0.5816046198287329 0.7645259493244884 1.0000   
         H         H         1.0       0.4930856191053849  0.6086328757022865  0.7132875392697298 1.0000   
         H         H         1.0       0.4929270216680886  0.5686664337340007  0.729165440956619  1.0000   
         H         H         1.0       0.4555421190970371  0.5162499329874662  0.7060806270638604 1.0000   
         H         H         1.0       0.42033736637892544           0.48699869171877014          0.6664583215163296 1.0000   
         H         H         1.0       0.34959268258543663           0.43966862146595076          0.7271540605109794 1.0000   
         H         H         1.0       0.3818029440501648  0.47479672926716676           0.7652285948378083 1.0000   
         C         C         1.0       0.44072300396423486           0.6100609226552408 0.6720832743622621 1.0000   
         C         C         1.0       0.4625778248852163  0.6314385495314391  0.6549685585502928 1.0000   
         C         C         1.0       0.47423475403846566           0.6236139943472747 0.6325904041807565 1.0000   
         C         C         1.0       0.4639013312993182  0.5944719250816475  0.6276436039405261 1.0000   
         C         C         1.0       0.43943185824885667           0.5726050880439042 0.644417891208956  1.0000   
         C         C         1.0       0.42718829090567817           0.5805441744171679 0.6656625711930934 1.0000   
         H         H         1.0       0.47614593289346835           0.6549023281519533 0.6622074430195809 1.0000   
         H         H         1.0       0.49017005868440644           0.6418025774194873 0.618076326351694  1.0000   
         H         H         1.0       0.4344703044267095  0.5511717743728125  0.6412515306365173 1.0000   
         H         H         1.0       0.4101035090554782  0.5640143248369305  0.6793230870951256 1.0000   
         C         C         1.0       0.4906824164737752  0.556619594576515   0.6417448763204885 1.0000   
         C         C         1.0       0.4886477284491929  0.5626567752836791  0.6125673139516855 1.0000   
         C         C         1.0       0.4958086922836466  0.549192866282626   0.5919289144231484 1.0000   
         C         C         1.0       0.5010066202555544  0.527633505755971   0.5989584946542464 1.0000   
         C         C         1.0       0.5012930922868676  0.5221821340479389  0.6270830653462801 1.0000   
         C         C         1.0       0.49630730326415684           0.5362169940074573 0.6484892985390217 1.0000   
         C         C         1.0       0.47999385614453793           0.5854288558544265 0.6030510341417545 1.0000   
         C         C         1.0       0.5132878165246395  0.6129944179309494  0.595073167020648  1.0000   
         C         C         1.0       0.5245516336345202  0.6206784722612744  0.5673107033185582 1.0000   
         C         C         1.0       0.5534958413299651  0.6446572781870551  0.5627061546390016 1.0000   
         C         C         1.0       0.5718121324601293  0.6614399019414103  0.5855124642056226 1.0000   
         C         C         1.0       0.55988366645002    0.6504962699088189  0.6128330281809408 1.0000   
         C         C         1.0       0.5331473846866368  0.6255215873329343  0.6171121010936027 1.0000   
         C         C         1.0       0.4323309537822565  0.5397064758594906  0.5808310385891483 1.0000   
         C         C         1.0       0.41413980976797266           0.5241411767438584 0.5575259711791318 1.0000   
         C         C         1.0       0.41922686285780153           0.5395918964966888 0.5310472347152448 1.0000   
         C         C         1.0       0.4371156632821261  0.5701817585598434  0.5323017251898972 1.0000   
         C         C         1.0       0.45359089757307886           0.5851728423153053 0.5560214184952936 1.0000   
         C         C         1.0       0.45498425201141046           0.5702463003314517 0.5792399846249038 1.0000   
         C         C         1.0       0.4263008352427453  0.5203700247646216  0.04838214757572068          1.0000   
         C         C         1.0       0.4943938546520757  0.4969106180860645  0.05065684592193098          1.0000   
         C         C         1.0       0.4843229668637103  0.5039931810322407  0.07495880353192508          1.0000   
         C         C         1.0       0.4633283727410501  0.510691342300016   0.07214558283176675          1.0000   
         C         C         1.0       0.4507325409952898  0.5102083158228685  0.04618382239418861          1.0000   
         C         C         1.0       0.4623963752074754  0.5052293855926453  0.021450626470242318         1.0000   
         C         C         1.0       0.4839217309807302  0.4985985942217084  0.024730673500613864         1.0000   
         C         C         1.0       0.4025964001986447  0.5081441068330447  0.0243214234129574 1.0000   
         C         C         1.0       0.3913220002589527  0.5226901387044077  0.010639046247165052         1.0000   
         C         C         1.0       0.36675080720673775           0.5077115502955284 0.9918604213637476 1.0000   
         C         C         1.0       0.35525623948520196           0.47862218241652543          0.9847426738914494 1.0000   
         C         C         1.0       0.3666035003516312  0.46378679198527306           0.9981406256972161 1.0000   
         C         C         1.0       0.3895420883227563  0.47823558012631706           0.017820279088123003         1.0000   
         C         C         1.0       0.39142556409093615           0.4835965521460225 0.08930518471731008          1.0000   
         C         C         1.0       0.36922999704748405           0.47482783531370204          0.11016768267965471          1.0000   
         C         C         1.0       0.35573273193889154           0.4897362272352017 0.11580154081174898          1.0000   
         C         C         1.0       0.37169734818891015           0.5186655765600092 0.10651428725997958          1.0000   
         C         C         1.0       0.39491315607526944           0.5290369108038092 0.08667303635723722          1.0000   
         C         C         1.0       0.40420198482796754           0.5111917243934477 0.07638072521575578          1.0000   
         H         H         1.0       0.492628885645874   0.5701596931828562  0.6605596197452033 1.0000   
         H         H         1.0       0.49572142269537417           0.5517312094529578 0.5700307562782497 1.0000   
         H         H         1.0       0.5045505938415411  0.5158296121075128  0.5813501003715921 1.0000   
         H         H         1.0       0.4994782315907429  0.530259780597631   0.6706212798689004 1.0000   
         H         H         1.0       0.5110741112879301  0.6052793711993688  0.5505488197102909 1.0000   
         H         H         1.0       0.5586135050400268  0.6505927443882716  0.5392243804695593 1.0000   
         H         H         1.0       0.5736044143370926  0.6619892123538794  0.6315836381903935 1.0000   
         H         H         1.0       0.5242266647731836  0.6171824794462746  0.6395514682777117 1.0000   
         H         H         1.0       0.4314355892728931  0.528152296568432   0.5996307699984146 1.0000   
         H         H         1.0       0.3975812071574086  0.49890920259147875           0.5607034699054269 1.0000   
         H         H         1.0       0.43966153572810407           0.5815066575862026 0.5128996240164264 1.0000   
         H         H         1.0       0.46829551022748334           0.6097650613325751 0.5561178509122939 1.0000   
         H         H         1.0       0.4918198989453849  0.5043487611433244  0.09636489117438485          1.0000   
         H         H         1.0       0.4601871200726629  0.5201160406009188  0.09136730561912709          1.0000   
         H         H         1.0       0.45610216577943286           0.5066465496359206 0.9999340212648828 1.0000   
         H         H         1.0       0.4949619665427846  0.4993394822827523  0.00509823178975366          1.0000   
         H         H         1.0       0.39822526556406196           0.5446452025722719 0.015842748182633315         1.0000   
         H         H         1.0       0.3579720335535099  0.5199656714427876  0.9826278853106972 1.0000   
         H         H         1.0       0.3528453023658896  0.439224725567334   0.9963436272579633 1.0000   
         H         H         1.0       0.3962060576135434  0.4650657021644792  0.030740225984072778         1.0000   
         H         H         1.0       0.3986309230313774  0.468354972018259   0.08071512582708018          1.0000   
         H         H         1.0       0.3590116156811162  0.452674374830148   0.1157538923630912 1.0000   
         H         H         1.0       0.3073692486198358  0.45960217871364106           0.5318586159518012 1.0000   
         H         H         1.0       0.35770987207930593           0.5036436131615697 0.5368345957824756 1.0000   
         C         C         1.0       0.643926456214083   0.7866437263903722  0.8326721397231797 1.0000   
         C         C         1.0       0.6393422408489172  0.7770920841822309  0.8611713287579233 1.0000   
         C         C         1.0       0.6364388653306515  0.7508488333201481  0.8677032856351561 1.0000   
         C         C         1.0       0.6374873371522294  0.7336310885945285  0.847113711697244  1.0000   
         C         C         1.0       0.6404871499043026  0.7429226268587152  0.8181137430875179 1.0000   
         C         C         1.0       0.6454384664385084  0.7692589005771465  0.8121588636905254 1.0000   
         H         H         1.0       0.6366602886313828  0.7897146665073063  0.8782298771225312 1.0000   
         H         H         1.0       0.6357031526687815  0.7465831879240133  0.8907141864671336 1.0000   
         H         H         1.0       0.6439237470462094  0.7330957193906942  0.7997574066828389 1.0000   
         H         H         1.0       0.6502663243407971  0.7791634020808286  0.7913429536078942 1.0000   
         C         C         1.0       0.599856332545177   0.6708539363123711  0.8189513082031492 1.0000   
         C         C         1.0       0.626618224026287   0.6808616792554647  0.8338521163280014 1.0000   
         C         C         1.0       0.6382769792715471  0.6636363539526875  0.8326241171825722 1.0000   
         C         C         1.0       0.6288137975227137  0.6403489122356106  0.8128317802076961 1.0000   
         C         C         1.0       0.6055594269972341  0.6348506104444187  0.7949996267827454 1.0000   
         C         C         1.0       0.5895755077040312  0.6483717560262454  0.7997390877190336 1.0000   
         C         C         1.0       0.6392537097911501  0.7072162622861536  0.8564791872439796 1.0000   
         C         C         1.0       0.6175606671849546  0.6879620404268169  0.8835270179142273 1.0000   
         C         C         1.0       0.6259239446179304  0.6734343559572258  0.9021662918509253 1.0000   
         C         C         1.0       0.6043486583394386  0.6520286114893356  0.9202597867848322 1.0000   
         C         C         1.0       0.574475484748423   0.6449877914619682  0.9216784375255322 1.0000   
         C         C         1.0       0.5675209547484454  0.6610310916133382  0.9039520184528728 1.0000   
         C         C         1.0       0.5894708860584439  0.6835614851261658  0.8860620470302779 1.0000   
         C         C         1.0       0.6921603295163302  0.7326046965316327  0.8321338732951289 1.0000   
         C         C         1.0       0.7227808728757177  0.7549882923514663  0.8304022550349938 1.0000   
         C         C         1.0       0.7375259136778445  0.7677935840918773  0.855861077753277  1.0000   
         C         C         1.0       0.7243942803634296  0.7569851394145412  0.8819354155000932 1.0000   
         C         C         1.0       0.6931531313075876  0.7356477607226476  0.8827946224267953 1.0000   
         C         C         1.0       0.6758720378158639  0.723635667201735   0.8581063864198926 1.0000   
         C         C         1.0       0.771618701317836   0.7968224871704905  0.853828475338805  1.0000   
         C         C         1.0       0.8222318581664648  0.7554962522056835  0.8330402808079753 1.0000   
         C         C         1.0       0.8167259422816509  0.7693407123483422  0.8128500565005014 1.0000   
         C         C         1.0       0.8026376110918794  0.7833807008115157  0.8196571591521215 1.0000   
         C         C         1.0       0.7904458820091628  0.7817283041114594  0.8469735608907377 1.0000   
         C         C         1.0       0.7938786057634137  0.7645119196833154  0.866405656701977  1.0000   
         C         C         1.0       0.8103772592484955  0.7524956706801821  0.8609131746246205 1.0000   
         C         C         1.0       0.7846620265629858  0.8170984161858874  0.8827271037715593 1.0000   
         C         C         1.0       0.7673605836326508  0.8245056783457074  0.8990290401745217 1.0000   
         C         C         1.0       0.7808458348456087  0.8490125592706155  0.9169284437495445 1.0000   
         C         C         1.0       0.8113237823056081  0.8663059304988401  0.9208790387775928 1.0000   
         C         C         1.0       0.8292614374158183  0.858167578079724   0.9079675894475635 1.0000   
         C         C         1.0       0.8164768170427773  0.8345413974564371  0.8890222425830915 1.0000   
         C         C         1.0       0.8038666354558605  0.8459827629015052  0.8277462497426326 1.0000   
         C         C         1.0       0.8089328202324403  0.8733329047414347  0.8204565598959084 1.0000   
         C         C         1.0       0.7848887441776242  0.8769765358278742  0.8223204664249709 1.0000   
         C         C         1.0       0.7566781698946948  0.8527037125222886  0.8262606753615324 1.0000   
         C         C         1.0       0.7517970035768499  0.8260619570428495  0.8324664982698973 1.0000   
         C         C         1.0       0.7747931838810526  0.8216919375478016  0.8348068881883648 1.0000   
         H         H         1.0       0.5877155222000539  0.6804933495386232  0.8231793081081491 1.0000   
         H         H         1.0       0.6563155670967977  0.6683847098530674  0.8453958784683193 1.0000   
         H         H         1.0       0.6426325197934495  0.6303433601272289  0.8109054055488388 1.0000   
         H         H         1.0       0.5663266201378538  0.6387772719869792  0.7912562647477577 1.0000   
         H         H         1.0       0.6483282867216034  0.6777600044124937  0.9004648465946875 1.0000   
         H         H         1.0       0.6100703937641736  0.6393736044597043  0.9321255851899152 1.0000   
         H         H         1.0       0.5445512858268895  0.6543503658227316  0.9050067137292616 1.0000   
         H         H         1.0       0.580929278764298   0.6937002238389712  0.8723782600374458 1.0000   
         H         H         1.0       0.6801153703323626  0.7239682287223937  0.8127211067295447 1.0000   
         H         H         1.0       0.7333698438870687  0.7649040247563209  0.8095322061668339 1.0000   
         H         H         1.0       0.7374176252461223  0.763114565702622   0.90176903598764   1.0000   
         H         H         1.0       0.6838570683557865  0.727862061256135   0.9044903515522912 1.0000   
         H         H         1.0       0.8239055346303393  0.7710232125126515  0.7912988706001174 1.0000   
         H         H         1.0       0.8032433963772876  0.7984301872909054  0.8036006332976835 1.0000   
         H         H         1.0       0.7847842485863945  0.7612740663607811  0.886962518381314  1.0000   
         H         H         1.0       0.8139333691072239  0.7415555978661117  0.8783840047949787 1.0000   
         H         H         1.0       0.74400214679099    0.81372846238174    0.8937946817625061 1.0000   
         H         H         1.0       0.7645207107418948  0.8537948291961455  0.9263135449410957 1.0000   
         H         H         1.0       0.8538351686915845  0.8725238184459312  0.9076156245788908 1.0000   
         H         H         1.0       0.8305183656815008  0.8301635284335609  0.8771875746894051 1.0000   
         H         H         1.0       0.8227216337541665  0.8423203228312632  0.8328184797294056 1.0000   
         H         H         1.0       0.8315650738141045  0.8893400894517749  0.8159284190581908 1.0000   
         H         H         1.0       0.7363903998819706  0.8549049800091307  0.8261950290033648 1.0000   
         H         H         1.0       0.7277162785454206  0.809706078370754   0.8353274684218757 1.0000   
         C         C         1.0       0.7906725571988962  0.8612716500245126  0.9854805785027925 1.0000   
         C         C         1.0       0.7715830247155918  0.8694018486330696  0.9938258148236411 1.0000   
         C         C         1.0       0.6631643012525379  0.8563626586420215  0.570450720600587  1.0000   
         C         C         1.0       0.6900604849286943  0.8576301519958053  0.5691298320156624 1.0000   
         C         C         1.0       0.7554656997226753  0.8121744428912656  0.0006133787244830824        1.0000   
         C         C         1.0       0.783130136216513   0.832973395035307   0.9883888265149328 1.0000   
         H         H         1.0       0.7787540053624269  0.8924642961500073  0.99604108844644   1.0000   
         H         H         1.0       0.6420520151135803  0.8379137908680843  0.5791170123237959 1.0000   
         H         H         1.0       0.7479335977547188  0.789796951632164   0.00618724006416671          1.0000   
         H         H         1.0       0.7971975149914985  0.8264275967576614  0.9793675462446053 1.0000   
         C         C         1.0       0.6923195521291332  0.7475469771231782  0.9977819982733159 1.0000   
         C         C         1.0       0.7207673154463974  0.8307551246662502  0.5733330038095554 1.0000   
         C         C         1.0       0.7367622469858286  0.8228713811864184  0.5905425797726704 1.0000   
         C         C         1.0       0.7550199604252847  0.8142767934286217  0.5790822082725148 1.0000   
         C         C         1.0       0.6789905418997305  0.7037476463580811  0.021793785850912073         1.0000   
         C         C         1.0       0.6859443840227214  0.719786294117977   0.997344386653429  1.0000   
         C         C         1.0       0.6950883880553386  0.834828011278038   0.5869190777003885 1.0000   
         C         C         1.0       0.6672777758637773  0.8020620609331084  0.5866503599956118 1.0000   
         C         C         1.0       0.6620953776105162  0.7824335315192558  0.6091772575411604 1.0000   
         C         C         1.0       0.6384916914833744  0.7533349789017602  0.6071784694639719 1.0000   
         C         C         1.0       0.6187676576891935  0.7429730355897066  0.5843544562397929 1.0000   
         C         C         1.0       0.6229314523847821  0.7617139036398435  0.5627890555339546 1.0000   
         C         C         1.0       0.647233775589816   0.7903341496849328  0.5635708378069428 1.0000   
         C         C         1.0       0.7350936269938029  0.8743247231593029  0.6199339448878227 1.0000   
         C         C         1.0       0.7457271423333207  0.8848662107229696  0.6464124937912457 1.0000   
         C         C         1.0       0.7297282537829611  0.8747919132406486  0.6712209115173388 1.0000   
         C         C         1.0       0.697736003573552   0.8529472348782228  0.6670485379675053 1.0000   
         C         C         1.0       0.6862014094594932  0.8432265819075543  0.6406900334792933 1.0000   
         C         C         1.0       0.7052255581948915  0.8506161432004298  0.616998292183072  1.0000   
         C         C         1.0       0.7448296317311128  0.8785729217004682  0.7022928195142807 1.0000   
         C         C         1.0       0.7837407087667063  0.8247251692600772  0.6877310657728203 1.0000   
         C         C         1.0       0.8016518214345681  0.8552016065110584  0.6802431535346374 1.0000   
         C         C         1.0       0.7910178571293988  0.8726609087393815  0.6853788291609071 1.0000   
         C         C         1.0       0.7611555818165666  0.8613276948342125  0.6958090689500688 1.0000   
         C         C         1.0       0.7422460552646197  0.8311634365854884  0.6988228592849334 1.0000   
         C         C         1.0       0.7532272512465769  0.8132621970971609  0.6975671600346305 1.0000   
         C         C         1.0       0.7212287919669078  0.8669033323394205  0.730063470247251  1.0000   
         C         C         1.0       0.7002944700359149  0.875948802462044   0.7344718430453645 1.0000   
         C         C         1.0       0.6797628999686012  0.8645342911177007  0.7563884071071859 1.0000   
         C         C         1.0       0.6797215666015561  0.8454217962077389  0.7765699167905725 1.0000   
         C         C         1.0       0.7019656126120694  0.8394560548461868  0.7732139640657067 1.0000   
         C         C         1.0       0.7211216679734379  0.8495039554112215  0.7510860703485183 1.0000   
         C         C         1.0       0.79482506079743    0.9219970861337318  0.7254330854034747 1.0000   
         C         C         1.0       0.8181818693433475  0.9513306620082985  0.7255818712396576 1.0000   
         C         C         1.0       0.8141896939284     0.9720506567478236  0.7156817947310495 1.0000   
         C         C         1.0       0.7857742794700997  0.9644457957059701  0.7060615612796194 1.0000   
         C         C         1.0       0.764904836752458   0.9345190493562994  0.7001408380057597 1.0000   
         C         C         1.0       0.7693307505044534  0.9130730195957203  0.7093571731596993 1.0000   
         H         H         1.0       0.6982500055573508  0.7591113270997546  0.9781850582315559 1.0000   
         H         H         1.0       0.733799184926309   0.8225469141379763  0.6140533184251449 1.0000   
         H         H         1.0       0.76752979571343    0.8078550172196914  0.592314976593501  1.0000   
         H         H         1.0       0.6872713978654134  0.7100532234401982  0.9773842420410545 1.0000   
         H         H         1.0       0.6759709932084939  0.7914224281987514  0.6282487143733981 1.0000   
         H         H         1.0       0.6365204612481054  0.737409127810332   0.6233056701364587 1.0000   
         H         H         1.0       0.6083130943573211  0.7552627632416927  0.545594176340106  1.0000   
         H         H         1.0       0.6933774481880646  0.8071926705047736  0.9642840822529133 1.0000   
         H         H         1.0       0.7537345408802896  0.8818774014269259  0.6033518251637889 1.0000   
         H         H         1.0       0.7697185912639829  0.8991287139281992  0.6509479098712445 1.0000   
         H         H         1.0       0.6817802600246576  0.8444137469750947  0.6847824560314606 1.0000   
         H         H         1.0       0.6618163736183815  0.8263261542141715  0.6384175031226995 1.0000   
         H         H         1.0       0.8261686507505165  0.8671981976981038  0.6723317276670933 1.0000   
         H         H         1.0       0.8062568829328459  0.8949045298272369  0.6809468107954023 1.0000   
         H         H         1.0       0.7164299418813457  0.8191768568935809  0.7016309178299738 1.0000   
         H         H         1.0       0.7377423450034514  0.7887365724453408  0.7021137789509536 1.0000   
         H         H         1.0       0.699425230127773   0.8904660389524618  0.719085491166753  1.0000   
         H         H         1.0       0.6590724259554305  0.865812255478777   0.7576607357782378 1.0000   
         H         H         1.0       0.7060030822234079  0.8266881695282513  0.7884206511747643 1.0000   
         H         H         1.0       0.7368401197240895  0.8434451450502718  0.7488490158832002 1.0000   
         H         H         1.0       0.7960775032307397  0.905526104501956   0.7376361122593557 1.0000   
         H         H         1.0       0.8411327411743257  0.958984844977121   0.7330453308659142 1.0000   
         H         H         1.0       0.7797453062217873  0.979631196571078   0.69723933297484   1.0000   
         H         H         1.0       0.7461519767580947  0.9317164718412531  0.6896846130295081 1.0000   
         C         C         1.0       0.03368658059946594           0.5675564679827627 0.636502056026109  1.0000   
         C         C         1.0       0.025769315859663244          0.5746249818146235 0.6115055479022156 1.0000   
         C         C         1.0       0.04760841896851886           0.5903641839202756 0.5899600880928441 1.0000   
         C         C         1.0       0.07419230242528863           0.5927767700891183 0.591334069245476  1.0000   
         C         C         1.0       0.08220403065193227           0.5848906901397659 0.6164475287316981 1.0000   
         C         C         1.0       0.06212287994590748           0.5716648657408263 0.638566559057214  1.0000   
         H         H         1.0       0.0036390616246606555         0.570919929595685  0.6091267914278282 1.0000   
         H         H         1.0       0.039152605080479796          0.5943159204692636 0.5712850561378718 1.0000   
         H         H         1.0       0.10511171136824204           0.5899615096642887 0.6205462360249796 1.0000   
         H         H         1.0       0.07039809302903666           0.5663574339492902 0.6569675553662437 1.0000   
         C         C         1.0       0.14609349037365837           0.6395872890376733 0.5862911704087882 1.0000   
         C         C         1.0       0.13128114441019179           0.6180228254564403 0.5651060382792368 1.0000   
         C         C         1.0       0.14937190151078045           0.6159931094468805 0.5448965341995377 1.0000   
         C         C         1.0       0.1789261092081537  0.6280767463934493  0.5488722507828784 1.0000   
         C         C         1.0       0.1925282848942639  0.6453139097759227  0.5739438239108671 1.0000   
         C         C         1.0       0.17627107459957359           0.6531502255820977 0.5903862208155589 1.0000   
         C         C         1.0       0.09566574222338398           0.6010778175443373 0.5628186486545297 1.0000   
         C         C         1.0       0.0937871751357997  0.6209972950714198  0.5388982027262627 1.0000   
         C         C         1.0       0.0885904115398728  0.6132083122568153  0.5095086827340163 1.0000   
         C         C         1.0       0.08632296590990007           0.6313258792499697 0.4905332614132207 1.0000   
         C         C         1.0       0.08867901063004435           0.6575821782738699 0.5005249826122784 1.0000   
         C         C         1.0       0.09541727026796698           0.6652453690152551 0.5294323540312972 1.0000   
         C         C         1.0       0.09759762938694982           0.6467509020944766 0.5482287944229463 1.0000   
         C         C         1.0       0.09745767713154385           0.5532234883011464 0.5636316924031123 1.0000   
         C         C         1.0       0.08300776556857214           0.5238473529942986 0.5617126203409247 1.0000   
         C         C         1.0       0.04162305737053362           0.43469899163499065          0.03854114144031029          1.0000   
         C         C         1.0       0.025570622668251497          0.44657420902327516          0.051760996387980374         1.0000   
         C         C         1.0       0.055747488524525934          0.5509162652219641 0.5426515563186507 1.0000   
         C         C         1.0       0.08358975865524076           0.5674504423837732 0.554987915077252  1.0000   
         C         C         1.0       0.045235448580489335          0.42982239253376303          0.004674063483171675         1.0000   
         C         C         1.0       0.13704661443512292           0.5091323586393667 0.9967178994799127 1.0000   
         C         C         1.0       0.13308198019899922           0.4815163408233234 0.9980265276410731 1.0000   
         C         C         1.0       0.10444609307887956           0.45614422648694386          0.9988983557040084 1.0000   
         C         C         1.0       0.07901902101849778           0.45803056069531967          0.0007366648881539373        1.0000   
         C         C         1.0       0.08301558543248638           0.4855283951061433 9.528946520287462e-06        1.0000   
         C         C         1.0       0.11180682019654758           0.5107207753444772 0.9975433467092796 1.0000   
         C         C         1.0       0.020723303609054167          0.43181345322262443          0.985993026845109  1.0000   
         C         C         1.0       0.9902247585167571  0.4170276333380163  0.9947396257921863 1.0000   
         C         C         1.0       0.9697093833819502  0.4187464383179973  0.9785226522245424 1.0000   
         C         C         1.0       0.9787733745917727  0.4347610815729548  0.9540077507431416 1.0000   
         C         C         1.0       0.007897616065394297          0.44945967834964806          0.9459221882780041 1.0000   
         C         C         1.0       0.028937751479354068          0.4460634396589217 0.9595756972516234 1.0000   
         C         C         1.0       0.051393198271663776          0.39809605504508366          0.9713775667786816 1.0000   
         C         C         1.0       0.04682240615516209           0.37207895327600204          0.9614474472889418 1.0000   
         C         C         1.0       0.03324853483803847           0.34667156903310065          0.9782269500383771 1.0000   
         C         C         1.0       0.021106485947668174          0.34830042016822227          0.004348916565385164         1.0000   
         C         C         1.0       0.02330969831926244           0.3735578067303128 0.013815458393730662         1.0000   
         C         C         1.0       0.04013452609970036           0.3991692576398836 0.9980242726183621 1.0000   
         H         H         1.0       0.13437196753924585           0.6460220038119102 0.599976179275531  1.0000   
         H         H         1.0       0.1406530547849832  0.6055272557511387  0.5247374939081408 1.0000   
         H         H         1.0       0.1881770929097539  0.6173700697358854  0.5362655805393497 1.0000   
         H         H         1.0       0.18349624238716367           0.6634489244764562 0.611549404339878  1.0000   
         H         H         1.0       0.08875948467509387           0.594630946053584  0.5004012534736618 1.0000   
         H         H         1.0       0.04207847858506297           0.5369908830250323 0.12371348228499812          1.0000   
         H         H         1.0       0.09421819902228235           0.6834057469492838 0.5377222177216436 1.0000   
         H         H         1.0       0.1001316797601175  0.6516248060782986  0.5705477917134482 1.0000   
         H         H         1.0       0.11938107781652874           0.5648277937044502 0.5744011281977265 1.0000   
         H         H         1.0       0.09252112682518665           0.5126534406905667 0.5735845711241594 1.0000   
         H         H         1.0       0.009955875639316325          0.4501818426267057 0.0403426102768063 1.0000   
         H         H         1.0       0.04351001275682287           0.5617345789160624 0.5381098571224753 1.0000   
         H         H         1.0       0.15256258082751978           0.47880424957152157          0.998254464142467  1.0000   
         H         H         1.0       0.10466272530371268           0.43565009133801985          0.00210757298741604          1.0000   
         H         H         1.0       0.06353308217807485           0.486534617026469  0.004683084508086743         1.0000   
         H         H         1.0       0.11409068881962015           0.5316608340323102 7.373935327126269e-05        1.0000   
         H         H         1.0       0.980044448246058   0.40104913523757807           0.01309561456261532          1.0000   
         H         H         1.0       0.946643620793105   0.40836144927685725           0.9881888670208091 1.0000   
         H         H         1.0       0.015797258931881775          0.46104317734925643          0.9247893812080064 1.0000   
         H         H         1.0       0.05111356711522563           0.4573175076982931 0.9503886598171866 1.0000   
         H         H         1.0       0.06195598749640263           0.41628875304496954          0.9565933213191778 1.0000   
         H         H         1.0       0.05495362885118449           0.37085501215674976          0.9421290769221555 1.0000   
         H         H         1.0       0.9238827086124579  0.412821124531417   0.5751129189199481 1.0000   
         H         H         1.0       0.9660369072051193  0.43271995095502325           0.5432335499573963 1.0000   
         C         C         1.0       0.9652844278325404  0.4232518276267813  0.8861954455245559 1.0000   
         C         C         1.0       0.9827909500314553  0.45133312822996285           0.8731683404245949 1.0000   
         C         C         1.0       0.005677405896079568          0.45755730398024025          0.8559800806957569 1.0000   
         C         C         1.0       0.012740428449959706          0.4367855209670832 0.8494016056773934 1.0000   
         C         C         1.0       0.9930968947409006  0.40848626255376275           0.8592824115800811 1.0000   
         C         C         1.0       0.9700477552574679  0.4020690179803441  0.8775110782320458 1.0000   
         H         H         1.0       0.9826246741636234  0.47030415649281654           0.8794951403063989 1.0000   
         H         H         1.0       0.020934664271643477          0.48072083377317254          0.8486352517671523 1.0000   
         H         H         1.0       0.9958908064416074  0.3910008206358832  0.8522052177911793 1.0000   
         H         H         1.0       0.9547091654283689  0.37857410923542845           0.883939526258655  1.0000   
         C         C         1.0       0.056952205753648476          0.41854134290967937          0.8734061542886262 1.0000   
         C         C         1.0       0.05796487818168819           0.4249819315019343 0.8454090362997017 1.0000   
         C         C         1.0       0.07510062841854959           0.41986953310340197          0.8249724888631718 1.0000   
         C         C         1.0       0.0888741192891535  0.40604225284184076           0.8331840986967084 1.0000   
         C         C         1.0       0.08619910968734    0.3975814226251238  0.8623099138565097 1.0000   
         C         C         1.0       0.07122355421326274           0.40447517623158136          0.8816203015842986 1.0000   
         C         C         1.0       0.040984400559819   0.4402151825720279  0.8312396196933403 1.0000   
         C         C         1.0       0.0703715391820916  0.47420891990736713           0.837670480776171  1.0000   
         C         C         1.0       0.09106914472354433           0.48838299449246375          0.8155778198800581 1.0000   
         C         C         1.0       0.11333776692817388           0.5178188856309563 0.8157449878481813 1.0000   
         C         C         1.0       0.11538612876107512           0.533169724407932  0.8406719850329034 1.0000   
         C         C         1.0       0.09846611600296051           0.5182176337159097 0.8642841028344351 1.0000   
         C         C         1.0       0.07686532474567276           0.48942396217736434          0.8633147629726814 1.0000   
         C         C         1.0       0.018969069314488607          0.41032264768020543          0.7845655393266886 1.0000   
         C         C         1.0       0.012905082842613602          0.4066774577568656 0.7551779815732573 1.0000   
         C         C         1.0       0.017915750413401765          0.4308995113604952 0.7400952906195368 1.0000   
         C         C         1.0       0.02445748651030577           0.4558027593039934 0.7551375115341299 1.0000   
         C         C         1.0       0.028879370043521257          0.45763751336888053          0.7834488695060433 1.0000   
         C         C         1.0       0.02806811335706838           0.4354613002308854 0.7986597232361811 1.0000   
         C         C         1.0       0.017360578714908703          0.4326739426588223 0.7062379425561678 1.0000   
         C         C         1.0       0.11027587328837453           0.45310476230917845          0.6887228586073987 1.0000   
         C         C         1.0       0.08471036523089738           0.4252358622798599 0.6828756100030959 1.0000   
         C         C         1.0       0.056219717370207874          0.41876526517840723          0.6899439344672633 1.0000   
         C         C         1.0       0.050848554230292775          0.43875357441924556          0.700241063308835  1.0000   
         C         C         1.0       0.0763236830062956  0.4660911857949427  0.7065567343340333 1.0000   
         C         C         1.0       0.10569844493370437           0.4736724869342551 0.7017338470679316 1.0000   
         C         C         1.0       0.012974277373678733          0.4572718116202686 0.6918710418714226 1.0000   
         C         C         1.0       0.98874671543434    0.4585507665066172  0.7005593604426917 1.0000   
         C         C         1.0       0.9906570786763073  0.48473722802426755           0.6990027780023278 1.0000   
         C         C         1.0       0.016503048673065734          0.5105487906795426 0.6865166817253326 1.0000   
         C         C         1.0       0.038186301076459817          0.5064907738812551 0.6733523746463563 1.0000   
         C         C         1.0       0.034233582787070116          0.47906174115633476          0.6747699869380767 1.0000   
         C         C         1.0       0.9913348830789899  0.39739184982080505           0.6640776052756995 1.0000   
         C         C         1.0       0.9698786415547479  0.37075015333871797           0.6515434461669768 1.0000   
         C         C         1.0       0.9450070014290637  0.34852013462281967           0.668849372897629  1.0000   
         C         C         1.0       0.9404372180751145  0.35612332841968813           0.6958238190848345 1.0000   
         C         C         1.0       0.9623529473167469  0.3834308447377694  0.7081683660128235 1.0000   
         C         C         1.0       0.9893768681854151  0.4034469936471803  0.6926862738679578 1.0000   
         H         H         1.0       0.043044189744589456          0.42131101548239736          0.8900427209834113 1.0000   
         H         H         1.0       0.07507102074062773           0.4260653807465454 0.8041040835611618 1.0000   
         H         H         1.0       0.1002745481380924  0.4013899051577271  0.8182406031970741 1.0000   
         H         H         1.0       0.07209179791243533           0.40026572786064424          0.9035409544368393 1.0000   
         H         H         1.0       0.09059278908637886           0.47659918815476027          0.7967228069025175 1.0000   
         H         H         1.0       0.12563276511723434           0.5290228651354411 0.7962350883942572 1.0000   
         H         H         1.0       0.10110327225801119           0.5307146090267638 0.8835007105731776 1.0000   
         H         H         1.0       0.06321072427870478           0.48073496101702384          0.8819043841885772 1.0000   
         H         H         1.0       0.0199768108212921  0.3938156692084023  0.7981367536640315 1.0000   
         H         H         1.0       0.006401243595075323          0.3860583137802444 0.7455971529372836 1.0000   
         H         H         1.0       0.02496378524411269           0.473286461055813  0.7458327459207    1.0000   
         H         H         1.0       0.03640561066233894           0.4781812058229033 0.7944751642231888 1.0000   
         H         H         1.0       0.08618014096367826           0.408708842663062  0.6731543871884952 1.0000   
         H         H         1.0       0.037269189324154954          0.3965921913978887 0.6860087567063887 1.0000   
         H         H         1.0       0.07454623171697361           0.48392942619389917          0.7167797352958454 1.0000   
         H         H         1.0       0.12385424601279572           0.49623061090186965          0.7091341313459382 1.0000   
         H         H         1.0       0.9693420886440639  0.4397809745068809  0.713323569673095  1.0000   
         H         H         1.0       0.9729605350866041  0.4868639775550749  0.7114431311132788 1.0000   
         H         H         1.0       0.05708582809518248           0.5222281499973315 0.6615570670080521 1.0000   
         H         H         1.0       0.05198189391078123           0.47570842016638054          0.6644460619018131 1.0000   
         H         H         1.0       0.009413516011460343          0.41473315722862925          0.6513785356195219 1.0000   
         H         H         1.0       0.9723428970636588  0.36803655921704664           0.6301295143043908 1.0000   
         H         H         1.0       0.9220115810542939  0.34022224518657307           0.7097761019061075 1.0000   
         H         H         1.0       0.9582530220298738  0.38878517148042785           0.7293255204606716 1.0000   
         C         C         1.0       0.871274502074026   0.4694113702480246  0.025147358742343418         1.0000   
         C         C         1.0       0.8757777027183229  0.4631729418931898  0.05227406632026654          1.0000   
         C         C         1.0       0.9665568733142711  0.7172931600343916  0.5287034508794269 1.0000   
         C         C         1.0       0.9145239044062164  0.514242388510554   0.0606330542054927 1.0000   
         C         C         1.0       0.9082890782307289  0.5190801561174947  0.03270017431908778          1.0000   
         C         C         1.0       0.8867689896042023  0.49793012656719354           0.015297893489768288         1.0000   
         H         H         1.0       0.863646109757936   0.440540649042695   0.058760431059279083         1.0000   
         H         H         1.0       0.9599111732527004  0.6948105954036157  0.524791209826749  1.0000   
         H         H         1.0       0.9221192796563292  0.5393713341511077  0.02155600192163276          1.0000   
         H         H         1.0       0.8853248492087744  0.5027063286475856  0.993846004832295  1.0000   
         C         C         1.0       0.9732165082478259  0.5224590671015497  0.044032989805916634         1.0000   
         C         C         1.0       0.9741867937310632  0.5449585582313187  0.05937975207420876          1.0000   
         C         C         1.0       0.06352392449814172           0.7518318491313158 0.5852869565651493 1.0000   
         C         C         1.0       0.02923141968471343           0.5751266149556633 0.049276307414772624         1.0000   
         C         C         1.0       0.026329083358846192          0.5502391801416093 0.03531791337702339          1.0000   
         C         C         1.0       0.9985815600512005  0.524470246244391   0.0334733080159717 1.0000   
         C         C         1.0       0.013301951046087002          0.7274965664361811 0.5574470799349992 1.0000   
         C         C         1.0       0.0185551112640725  0.7075974372420596  0.5357476869894027 1.0000   
         C         C         1.0       0.022865490393876753          0.6863465437468187 0.5453160245075602 1.0000   
         C         C         1.0       0.030681746238697682          0.670225407809781  0.5277693526037716 1.0000   
         C         C         1.0       0.03660181378192329           0.6776560859848185 0.49850283440962584          1.0000   
         C         C         1.0       0.031659952732132624          0.6982195202094067 0.48784118254380293          1.0000   
         C         C         1.0       0.9486430651562532  0.5031948240221137  0.11343430560447798          1.0000   
         C         C         1.0       0.9991473646238463  0.728940226984435   0.6107498053816983 1.0000   
         C         C         1.0       0.9917404812922224  0.7188950429225518  0.6383504895607869 1.0000   
         C         C         1.0       0.9827509141370846  0.6905057705436204  0.645001500482389  1.0000   
         C         C         1.0       0.9751726234298901  0.6715974893507112  0.6216813744992067 1.0000   
         C         C         1.0       0.977981803671455   0.681362351229538   0.5937848146940407 1.0000   
         C         C         1.0       0.9956718583945594  0.7111104658548266  0.587652323593228  1.0000   
         C         C         1.0       0.9908796387016396  0.6841578695227692  0.6764551025264185 1.0000   
         C         C         1.0       0.09143546475744374           0.7456766336827673 0.6749279663958078 1.0000   
         C         C         1.0       0.07382843659700955           0.7509373236752315 0.6932461021457573 1.0000   
         C         C         1.0       0.04332112067829132           0.7329420168552508 0.6943987459622292 1.0000   
         C         C         1.0       0.02716200912708766           0.707446115738168  0.6763086181708902 1.0000   
         C         C         1.0       0.04602384483906271           0.7035488313253387 0.656783718422014  1.0000   
         C         C         1.0       0.07795852650782693           0.7225008324905335 0.6558598142052285 1.0000   
         C         C         1.0       0.9802047228712136  0.6508593227804029  0.6809955687318869 1.0000   
         C         C         1.0       0.9486520173207117  0.6271567774021508  0.6790150871742981 1.0000   
         C         C         1.0       0.9390919852109135  0.598486134723353   0.685147989269537  1.0000   
         C         C         1.0       0.9586320201137469  0.5905438598736809  0.6920891135956264 1.0000   
         C         C         1.0       0.9888398346817524  0.6122304503470005  0.6913707465165337 1.0000   
         C         C         1.0       0.0003328084508009699         0.6422332436604944 0.6881245306563135 1.0000   
         C         C         1.0       0.9815352430659473  0.68492734714238    0.7309494170028693 1.0000   
         C         C         1.0       0.9754337532927632  0.6958131644615473  0.7543195332398382 1.0000   
         C         C         1.0       0.9585775294208839  0.7082228519886374  0.7507410799172092 1.0000   
         C         C         1.0       0.9500800059469451  0.7116847686452173  0.7238221520446073 1.0000   
         C         C         1.0       0.9562541125171345  0.6998463712202454  0.7000572194139602 1.0000   
         C         C         1.0       0.9744100733879172  0.6889760828123812  0.7030160052997388 1.0000   
         H         H         1.0       0.9534384661815581  0.5008046045029418  0.04423984152325988          1.0000   
         H         H         1.0       0.05299901466128796           0.7328797539941098 0.6003671287535586 1.0000   
         H         H         1.0       0.049870303388795015          0.5961966185444347 0.051590866771258126         1.0000   
         H         H         1.0       0.9970489006174972  0.5062327296412423  0.021685651835842368         1.0000   
         H         H         1.0       0.01948886548638007           0.6801472331454023 0.5672149552384251 1.0000   
         H         H         1.0       0.029864875439755023          0.6518144289202539 0.5371331954016744 1.0000   
         H         H         1.0       0.9648296980363029  0.4808261509092017  0.14035816654979283          1.0000   
         H         H         1.0       0.9383364329416485  0.4840774609790451  0.09894890807775214          1.0000   
         H         H         1.0       0.01123427776321928           0.7523275022506571 0.6116813493180492 1.0000   
         H         H         1.0       0.998342774393508   0.7345317011573407  0.6555437966232148 1.0000   
         H         H         1.0       0.9691192312317556  0.6494323523817483  0.6253146228627678 1.0000   
         H         H         1.0       0.9713926649570047  0.6667229191362438  0.5761506696923652 1.0000   
         H         H         1.0       0.08260112359873331           0.7675808095843114 0.7103547870881826 1.0000   
         H         H         1.0       0.028622897651713775          0.7345726441625152 0.7095179576447898 1.0000   
         H         H         1.0       0.03562933865782991           0.6852007669736321 0.6421864177984103 1.0000   
         H         H         1.0       0.09260084647588093           0.7205755281343429 0.6395779705076079 1.0000   
         H         H         1.0       0.9326709091373857  0.6334519758631147  0.6757002610978896 1.0000   
         H         H         1.0       0.9142374804475273  0.5814342080234617  0.6852244541825996 1.0000   
         H         H         1.0       0.003975147072770691          0.606547571968818  0.6987735705222492 1.0000   
         H         H         1.0       0.02299611839713367           0.6586781540367408 0.6945723191263153 1.0000   
         H         H         1.0       0.994370376686641   0.6758292984629837  0.7351986385527932 1.0000   
         H         H         1.0       0.9847803810056276  0.695208832586041   0.7757792425205645 1.0000   
         H         H         1.0       0.936300472401817   0.7200946727245505  0.7173907674813911 1.0000   
         H         H         1.0       0.9448614720051943  0.6994979071076783  0.6809906811419671 1.0000   
         C         C         1.0       0.9629668085497527  0.5625803538874813  0.7529817588858877 1.0000   
         C         C         1.0       0.976690501782416   0.5482263118059846  0.7595322027192983 1.0000   
         C         C         1.0       0.997943726930981   0.5582479582223433  0.7791889802672243 1.0000   
         C         C         1.0       0.007052973120851069          0.5832865493001065 0.7942526872968773 1.0000   
         C         C         1.0       0.9921358529461648  0.5969070752078577  0.7900804534222573 1.0000   
         C         C         1.0       0.9691769499384986  0.58551694356698    0.7702723825409011 1.0000   
         H         H         1.0       0.9735756464249042  0.5294291730770762  0.7484551488425855 1.0000   
         H         H         1.0       0.006694768078562063          0.5457978574942226 0.7857228479882974 1.0000   
         H         H         1.0       0.9950752726177398  0.614645627108199   0.8031516791301848 1.0000   
         H         H         1.0       0.9559277465413045  0.5952851825813128  0.766549155233234  1.0000   
         C         C         1.0       0.06311726471053329           0.6478138514273818 0.8073864144787364 1.0000   
         C         C         1.0       0.04931558154696089           0.6265482303692398 0.8297200355648657 1.0000   
         C         C         1.0       0.05658234152360451           0.6356384916109624 0.8576856085549531 1.0000   
         C         C         1.0       0.07718473153703863           0.6640402424476444 0.8641573905835788 1.0000   
         C         C         1.0       0.09381462911856424           0.6851049122826561 0.8418662108280685 1.0000   
         C         C         1.0       0.08444853460252293           0.6774204724849211 0.8138405977199826 1.0000   
         C         C         1.0       0.02888561714350657           0.5915257509855658 0.8207040597845751 1.0000   
         C         C         1.0       0.05668684766965826           0.5873405603375041 0.8190763316088899 1.0000   
         C         C         1.0       0.0704274302544583  0.5884711836399138  0.8450187691004439 1.0000   
         C         C         1.0       0.09558672660133838           0.5875611293186515 0.8459623120602786 1.0000   
         C         C         1.0       0.10943970739087638           0.5876495801356044 0.8212175848185577 1.0000   
         C         C         1.0       0.09726674610535246           0.5887673260067056 0.7949008524336683 1.0000   
         C         C         1.0       0.07219671177022713           0.5896110863100942 0.7944685428255793 1.0000   
         C         C         1.0       0.9895695888255185  0.5855464692940439  0.8592709685156753 1.0000   
         C         C         1.0       0.9730220361283778  0.5747261749130538  0.8846017546714485 1.0000   
         C         C         1.0       0.9684169520700862  0.5496057672512057  0.8966679780601583 1.0000   
         C         C         1.0       0.9773471775218215  0.5339955695422617  0.8809544103025693 1.0000   
         C         C         1.0       0.9950452644699681  0.5458094768242688  0.8564195430284107 1.0000   
         C         C         1.0       0.003370381010873169          0.5732889094960817 0.8462752297304695 1.0000   
         C         C         1.0       0.9669990851258828  0.5465811797157967  0.9310757412734426 1.0000   
         C         C         1.0       0.06575220839090472           0.5995500706679217 0.93942504478658   1.0000   
         C         C         1.0       0.051734301856259685          0.6144568978267819 0.9381075747863384 1.0000   
         C         C         1.0       0.020471181163559376          0.5973831713404526 0.9385005243809772 1.0000   
         C         C         1.0       0.003557870474252126          0.565865831777553  0.9365117663590408 1.0000   
         C         C         1.0       0.019798391268795137          0.5529899180462524 0.9377969116200912 1.0000   
         C         C         1.0       0.05103435227239446           0.5697360574850946 0.940092270436823  1.0000   
         C         C         1.0       0.9461942826152625  0.5125616635827891  0.9405489213109993 1.0000   
         C         C         1.0       0.9202234550233013  0.49180543701188806           0.9263408260516481 1.0000   
         C         C         1.0       0.8993657716450262  0.46493428638985157           0.9393338019885267 1.0000   
         C         C         1.0       0.9017044803070733  0.46087114389387357           0.9675622841708461 1.0000   
         C         C         1.0       0.9285192311292033  0.47978459483324576           0.9806412151891103 1.0000   
         C         C         1.0       0.9510256566334534  0.505183932667104   0.9679785654323723 1.0000   
         C         C         1.0       0.9585359821752926  0.5744584815522119  0.9702298385151633 1.0000   
         C         C         1.0       0.9469518248417532  0.5906735072301832  0.9785111299535875 1.0000   
         C         C         1.0       0.925300274744045   0.5908276555860602  0.9627522028922973 1.0000   
         C         C         1.0       0.9144439000167028  0.5734227490183668  0.9394533199614477 1.0000   
         C         C         1.0       0.9241075729741117  0.554303713210284   0.933114488959114  1.0000   
         C         C         1.0       0.949080295342831   0.5584431476831682  0.9459742030423985 1.0000   
         H         H         1.0       0.05968700058812235           0.6429155610362383 0.7856197053707166 1.0000   
         H         H         1.0       0.047766924125533454          0.6212925738536056 0.8764851346920801 1.0000   
         H         H         1.0       0.08130038268107011           0.6695191578618747 0.8872278613112061 1.0000   
         H         H         1.0       0.09605482870170942           0.6927765396008658 0.7969440616616363 1.0000   
         H         H         1.0       0.06049676292140638           0.5891717414483634 0.8667375687971531 1.0000   
         H         H         1.0       0.10252642066382678           0.58770906138024   0.8659391816371839 1.0000   
         H         H         1.0       0.10733999294676089           0.5905067048722085 0.7740520642054987 1.0000   
         H         H         1.0       0.06495604606468541           0.591609062789325  0.7744888978302893 1.0000   
         H         H         1.0       0.9922604962079492  0.6060829794553445  0.8540568627099298 1.0000   
         H         H         1.0       0.9673394561786784  0.5883910052927622  0.8961844685469231 1.0000   
         H         H         1.0       0.9766288194407001  0.5152670605176353  0.8891015716252153 1.0000   
         H         H         1.0       0.006998576649925425          0.5365319626620798 0.8475530328798754 1.0000   
         H         H         1.0       0.06389593714933939           0.638707391863571  0.9370746739292286 1.0000   
         H         H         1.0       0.009631599512942594          0.609481489830611  0.9365478291292801 1.0000   
         H         H         1.0       0.006760502721727235          0.5291124680074655 0.9354058015135666 1.0000   
         H         H         1.0       0.064585630032695   0.5597934858340269  0.9414897789218934 1.0000   
         H         H         1.0       0.9124500843019517  0.49492134241181046           0.9057838995818657 1.0000   
         H         H         1.0       0.8767683227595942  0.45041628412192    0.9297414127928425 1.0000   
         H         H         1.0       0.9320244964719733  0.47401725911239456           0.0023595452417435325        1.0000   
         H         H         1.0       0.9710669357994506  0.5199110428537381  0.9801685337105629 1.0000   
         H         H         1.0       0.9789014964051245  0.5773424628158506  0.9802489854361597 1.0000   
         H         H         1.0       0.9557587152540405  0.6047704000466959  0.9960460320521023 1.0000   
         H         H         1.0       0.89961776170809    0.5746707122785238  0.9249916114191986 1.0000   
         H         H         1.0       0.9174381780358968  0.5407253717189553  0.9140148409631593 1.0000   
         C         C         1.0       0.3099402857491031  0.8422742446512963  0.8695307075049991 1.0000   
         C         C         1.0       0.3112689683430932  0.8176691749055894  0.8617458982394165 1.0000   
         C         C         1.0       0.29504738215026793           0.7992201418434094 0.8400989966135141 1.0000   
         C         C         1.0       0.2788767709236625  0.8062656656069862  0.8230462251222624 1.0000   
         C         C         1.0       0.2779708181275896  0.8311997565677262  0.8298252664488218 1.0000   
         C         C         1.0       0.2931428058352167  0.8477955896523975  0.8521450833780562 1.0000   
         H         H         1.0       0.32501702390413684           0.8142512415567795 0.8766060300273476 1.0000   
         H         H         1.0       0.29621645854779854           0.7804553001286721 0.8379739643677181 1.0000   
         H         H         1.0       0.26532255545683625           0.8377737654802154 0.8180967504909123 1.0000   
         H         H         1.0       0.2966574490906321  0.8691262702824162  0.8561785267419543 1.0000   
         C         C         1.0       0.21566763751745846           0.7398817907229768 0.8290480503862331 1.0000   
         C         C         1.0       0.22636153674202358           0.7661036575631142 0.8144269697254036 1.0000   
         C         C         1.0       0.20734694060854236           0.7776596039928533 0.8175934440133905 1.0000   
         C         C         1.0       0.18310122216261715           0.7666180048546821 0.8351983215498093 1.0000   
         C         C         1.0       0.1721857338951834  0.7383552156189525  0.8473454555282796 1.0000   
         C         C         1.0       0.19091721014193683           0.728254548302683  0.8471650030295498 1.0000   
         C         C         1.0       0.25863233849180534           0.7841283723273896 0.7986851772426806 1.0000   
         C         C         1.0       0.26672680479458544           0.763530167365697  0.7826424809946277 1.0000   
         C         C         1.0       0.29807786090646216           0.7743667399339199 0.7775181165207915 1.0000   
         C         C         1.0       0.30789091340176356           0.7590577000096995 0.7628727652309091 1.0000   
         C         C         1.0       0.28701150975185746           0.7332635762656441 0.7506062544323936 1.0000   
         C         C         1.0       0.2563280572243232  0.7226255225593254  0.7528626938830615 1.0000   
         C         C         1.0       0.24629983579010908           0.7375267120127249 0.7686101251167002 1.0000   
         C         C         1.0       0.23557017494584467           0.7924023110807119 0.7542433672104762 1.0000   
         C         C         1.0       0.23502400409761015           0.8101885560702834 0.7334882973208633 1.0000   
         C         C         1.0       0.25856834157342456           0.838704885575526  0.7283917401787721 1.0000   
         C         C         1.0       0.28465065315614224           0.8466920006766725 0.7437236272612198 1.0000   
         C         C         1.0       0.286249765901736   0.829529739418449   0.763542792701379  1.0000   
         C         C         1.0       0.26086984491507614           0.8021821960718981 0.7702018105850778 1.0000   
         C         C         1.0       0.2585646002720904  0.8633471347811382  0.7097133051213799 1.0000   
         C         C         1.0       0.16813879178627458           0.822525564794497  0.6748474374950999 1.0000   
         C         C         1.0       0.175155901085297   0.8303800365507565  0.7025902506351694 1.0000   
         C         C         1.0       0.20369193384595566           0.843795923167324  0.7121223160297492 1.0000   
         C         C         1.0       0.22750981792255187           0.8505857571091788 0.6935636405282493 1.0000   
         C         C         1.0       0.22108956846360964           0.8471441017754453 0.6633445326664692 1.0000   
         C         C         1.0       0.19101061693778676           0.8315435587834943 0.6549207506355939 1.0000   
         C         C         1.0       0.28706758266630406           0.8763900445786735 0.6872763648875071 1.0000   
         C         C         1.0       0.31263925857719527           0.9040623797906499 0.6860084425645778 1.0000   
         C         C         1.0       0.33883693367957196           0.9097117974181226 0.6739057153572944 1.0000   
         C         C         1.0       0.3401081794795233  0.8889009564968091  0.6589419790269574 1.0000   
         C         C         1.0       0.31257607780021684           0.8616598412168518 0.6550447629655076 1.0000   
         C         C         1.0       0.2872012198400376  0.854230377310785   0.6703790717589485 1.0000   
         C         C         1.0       0.26222703633597594           0.9120365030901882 0.7151609169702003 1.0000   
         C         C         1.0       0.26993877435972136           0.937349072334962  0.7294630930551856 1.0000   
         C         C         1.0       0.2757526390831599  0.9401127681981013  0.7590125423382529 1.0000   
         C         C         1.0       0.272788819585661   0.9173137865050189  0.7739309609063948 1.0000   
         C         C         1.0       0.26638967504957434           0.8921795763263702 0.759268489315004  1.0000   
         C         C         1.0       0.2631205100364704  0.8896873500966405  0.7294373077659428 1.0000   
         H         H         1.0       0.22999980328494077           0.7312255722321173 0.8297178474480438 1.0000   
         H         H         1.0       0.21370300663552644           0.7985724238225849 0.8070983746806338 1.0000   
         H         H         1.0       0.17238784859648104           0.7785087284339909 0.8378417495110435 1.0000   
         H         H         1.0       0.18371038841323922           0.7084907394348    0.8609428394494394 1.0000   
         H         H         1.0       0.3167457145297171  0.7937864665104776  0.7877647561422888 1.0000   
         H         H         1.0       0.3310732665950462  0.767172512585205   0.762983438173583  1.0000   
         H         H         1.0       0.2389749340992423  0.7007650595376989  0.74147325151545   1.0000   
         H         H         1.0       0.22270726409049105           0.7294632847080171 0.7698477398503892 1.0000   
         H         H         1.0       0.21668444812480997           0.7690173436545513 0.7546991667614766 1.0000   
         H         H         1.0       0.21399258564733384           0.7995472806598308 0.721482139801435  1.0000   
         H         H         1.0       0.3053059952400654  0.8683858718144899  0.739470226599746  1.0000   
         H         H         1.0       0.30661034973740087           0.8386257414326522 0.7769900525136525 1.0000   
         H         H         1.0       0.1568720617827394  0.8182748671984165  0.7189083825529772 1.0000   
         H         H         1.0       0.2060062097002836  0.84294316049205    0.7348220270343134 1.0000   
         H         H         1.0       0.2393795014312667  0.8563752230858558  0.6473527969178031 1.0000   
         H         H         1.0       0.18540771541078918           0.8250549120590547 0.632281028530696  1.0000   
         H         H         1.0       0.3150117884666218  0.9224586659011135  0.6993603190861417 1.0000   
         H         H         1.0       0.35886815260007615           0.9310645554176202 0.6733788859580538 1.0000   
         H         H         1.0       0.313561772819059   0.8442318737919441  0.6412221884573197 1.0000   
         H         H         1.0       0.267787831502593   0.8311491087018804  0.6706897539615246 1.0000   
         H         H         1.0       0.2578072509072702  0.9110625971202105  0.6926658840830816 1.0000   
         H         H         1.0       0.27129046215623703           0.9560476619018325 0.7195979203881885 1.0000   
         H         H         1.0       0.2760362789753917  0.918990274060814   0.7977019742387871 1.0000   
         H         H         1.0       0.26582094622595365           0.8759620327858118 0.7709200753176868 1.0000   
         C         C         1.0       0.27741693435810816           0.6972232220083558 0.06942376395344851          1.0000   
         C         C         1.0       0.2846599793015459  0.6972021151114663  0.040880547540089296         1.0000   
         C         C         1.0       0.26180468391052664           0.6814513612255181 0.02093919076918227          1.0000   
         C         C         1.0       0.23182899314319969           0.6631238993490892 0.02964676283139056          1.0000   
         C         C         1.0       0.2261507991478397  0.6614611709014535  0.05999070734424339          1.0000   
         C         C         1.0       0.24868901196559948           0.6761212532807327 0.07926569415459617          1.0000   
         H         H         1.0       0.3064805305307589  0.7134840197079123  0.03330608594186546          1.0000   
         H         H         1.0       0.2677812310512329  0.6896314279966237  0.9987700696498888 1.0000   
         H         H         1.0       0.2044306353225978  0.6510816436791108  0.07047228255933846          1.0000   
         H         H         1.0       0.2424909213170468  0.6740235414723589  0.1020738735333957 1.0000   
         C         C         1.0       0.16496984674709872           0.6033063840361045 0.03567853728751391          1.0000   
         C         C         1.0       0.17035241042608698           0.627217327428111  0.018772013927041087         1.0000   
         C         C         1.0       0.1448866958951031  0.6274088445345831  0.010634305457404736         1.0000   
         C         C         1.0       0.1161110524550253  0.6075551847482223  0.019614599946578215         1.0000   
         C         C         1.0       0.11167259629196842           0.5851351974114813 0.03603936565920862          1.0000   
         C         C         1.0       0.13564424297994304           0.5835308650993971 0.04397913768789019          1.0000   
         C         C         1.0       0.20391877906333694           0.6533301859258087 0.0075265628247400684        1.0000   
         C         C         1.0       0.20643948749914096           0.6421092792975549 0.9769158421226212 1.0000   
         C         C         1.0       0.18952541429416475           0.6418667275857065 0.9530183232022469 1.0000   
         C         C         1.0       0.1876825306135417  0.6279174341659097  0.9278161586418038 1.0000   
         C         C         1.0       0.20029034321705624           0.6111137721924235 0.9274092713820654 1.0000   
         C         C         1.0       0.21916423760825113           0.6134437306117863 0.9488580077025767 1.0000   
         C         C         1.0       0.2182628647075574  0.6259024866892904  0.9743413261777171 1.0000   
         C         C         1.0       0.19545298896784916           0.6938927612109616 0.023032944696759206         1.0000   
         C         C         1.0       0.19442728267477274           0.7182666786492671 0.015440027946163282         1.0000   
         C         C         1.0       0.21013479840627516           0.7339846533061778 0.9901902420999603 1.0000   
         C         C         1.0       0.23146348108486592           0.729550824842264  0.9787097879435265 1.0000   
         C         C         1.0       0.2295500076679633  0.7040679529862965  0.9844862806780998 1.0000   
         C         C         1.0       0.2101237538889568  0.6849302735671721  0.005236054989577799         1.0000   
         C         C         1.0       0.19995994907818435           0.7525487361402995 0.9729188202481974 1.0000   
         C         C         1.0       0.1360255087551424  0.6725197640252397  0.9291766641814053 1.0000   
         C         C         1.0       0.1258903210272507  0.6813306495549246  0.9524336979268004 1.0000   
         C         C         1.0       0.1461767356891794  0.7080263208641695  0.9642269331556285 1.0000   
         C         C         1.0       0.1758992044818167  0.7265265903911582  0.9535467719400973 1.0000   
         C         C         1.0       0.18541634071356464           0.7175541492097295 0.9293743158331509 1.0000   
         C         C         1.0       0.16516925961822176           0.689763915743448  0.9183068503661874 1.0000   
         C         C         1.0       0.2287420897119968  0.7795964776829433  0.9554298206060964 1.0000   
         C         C         1.0       0.25684706369920846           0.7955197919768792 0.9706370474994376 1.0000   
         C         C         1.0       0.2807486008397965  0.8203765697865065  0.9587368850000433 1.0000   
         C         C         1.0       0.2779517812977706  0.8311811425453589  0.9324081315415107 1.0000   
         C         C         1.0       0.25178361698704654           0.8166020801004372 0.9177818571596594 1.0000   
         C         C         1.0       0.22672749552231625           0.7907095561018994 0.9299638417706175 1.0000   
         C         C         1.0       0.16787606118976578           0.7760299276080185 0.9824259504219554 1.0000   
         C         C         1.0       0.1645949352539973  0.7976211693979944  0.9937099356971502 1.0000   
         C         C         1.0       0.18435840349777532           0.8165140494622092 0.014374165924077031         1.0000   
         C         C         1.0       0.2038525995252818  0.8104435328045595  0.02658832251547283          1.0000   
         C         C         1.0       0.20546765488979457           0.7874415616480727 0.016831600572846606         1.0000   
         C         C         1.0       0.1893050033010757  0.7708785934386179  0.9929995730995046 1.0000   
         H         H         1.0       0.18341741946499848           0.6016248540811531 0.043224838277324595         1.0000   
         H         H         1.0       0.14966447153914608           0.6459136560122012 0.9952105779258303 1.0000   
         H         H         1.0       0.09741583730662837           0.6082168713661907 0.01317698363924702          1.0000   
         H         H         1.0       0.12949933513191303           0.5650274378453624 0.056594026512168494         1.0000   
         H         H         1.0       0.17917360056752576           0.6542274047559187 0.9539303824266816 1.0000   
         H         H         1.0       0.1759840664347746  0.6275958620482667  0.9087354254597887 1.0000   
         H         H         1.0       0.23165203738762793           0.6029218719053242 0.9462737508302395 1.0000   
         H         H         1.0       0.23098912267111243           0.6259286618290316 0.991391794997843  1.0000   
         H         H         1.0       0.18195286062378074           0.6814191465466429 0.04123977897429243          1.0000   
         H         H         1.0       0.18090482969202878           0.7248559427090494 0.026476278238409368         1.0000   
         H         H         1.0       0.244612035369465   0.7423137941220779  0.9591013325414308 1.0000   
         H         H         1.0       0.2410494783478562  0.6987065609148925  0.96895983078008   1.0000   
         H         H         1.0       0.1043702940178889  0.6657592690743597  0.9620700111269362 1.0000   
         H         H         1.0       0.13989317200037357           0.7130261151398066 0.9844439409011986 1.0000   
         H         H         1.0       0.20888534916418364           0.7295108290656034 0.9219053935833431 1.0000   
         H         H         1.0       0.1724595433389122  0.6811866410134354  0.9007233008271075 1.0000   
         H         H         1.0       0.255816536591652   0.7874539049282905  0.9920531914935362 1.0000   
         H         H         1.0       0.3027553516345744  0.8340899818905145  0.9674820429142647 1.0000   
         H         H         1.0       0.24885638888552325           0.8273542779993533 0.8995932903680588 1.0000   
         H         H         1.0       0.20409213708899154           0.7821262380533813 0.9219464797453418 1.0000   
         H         H         1.0       0.1559867279906879  0.7635915956542243  0.963137217598865  1.0000   
         H         H         1.0       0.14912502287996182           0.8019041741687285 0.9839580003509707 1.0000   
         H         H         1.0       0.21964877323441098           0.824925252738567  0.042102503640875755         1.0000   
         H         H         1.0       0.22201704864561142           0.7846403889728528 0.025842210320247583         1.0000   
         C         C         1.0       0.3777327257156108  0.6191840880564217  0.6165079218408042 1.0000   
         C         C         1.0       0.37838514890069797           0.6224576830621043 0.6455314339685754 1.0000   
         C         C         1.0       0.3585775559347213  0.6287146816415534  0.6593803706949514 1.0000   
         C         C         1.0       0.3330266097825751  0.623941945379891   0.6448602421224718 1.0000   
         C         C         1.0       0.3330099663300319  0.620347861132442   0.6161772056059135 1.0000   
         C         C         1.0       0.3571961141050533  0.6217951833248276  0.6022994185587017 1.0000   
         H         H         1.0       0.39419583372553924           0.6200426840846994 0.6587051335425441 1.0000   
         H         H         1.0       0.356309591675051   0.6264786577583393  0.6825465308721327 1.0000   
         H         H         1.0       0.31454132042340704           0.6144090455546878 0.6023675119110775 1.0000   
         H         H         1.0       0.3531896403586824  0.6143323385082707  0.5807041796660124 1.0000   
         C         C         1.0       0.2842847604210226  0.6354087582981308  0.629833561262466  1.0000   
         C         C         1.0       0.27780608750567737           0.6130702839060823 0.6484037187879116 1.0000   
         C         C         1.0       0.24676961186233026           0.5893072308466034 0.6493136441548136 1.0000   
         C         C         1.0       0.22520202015680985           0.5909004028522298 0.634382399560158  1.0000   
         C         C         1.0       0.23242818752523076           0.6136912350242938 0.6169859789534834 1.0000   
         C         C         1.0       0.2626700599029695  0.6356327942099963  0.6130882574889991 1.0000   
         C         C         1.0       0.3046472475448954  0.6149579400219001  0.6650826503020618 1.0000   
         C         C         1.0       0.30840314092962196           0.638262694620466  0.6883263157176133 1.0000   
         C         C         1.0       0.28415279214663886           0.629514508119677  0.7068751309508706 1.0000   
         C         C         1.0       0.2845629205061007  0.6478878509182532  0.7263773227567257 1.0000   
         C         C         1.0       0.3079992719009015  0.6764100809812948  0.727036303508417  1.0000   
         C         C         1.0       0.3329023202450263  0.6862357422617238  0.7088752738213429 1.0000   
         C         C         1.0       0.3346775677952752  0.6670616823558352  0.6913437349328968 1.0000   
         C         C         1.0       0.2907771396748332  0.561520049681317   0.6574953682635393 1.0000   
         C         C         1.0       0.2889645273710077  0.5368756323686263  0.6671757289632807 1.0000   
         C         C         1.0       0.29035043389047044           0.5315119300551148 0.6965311088787898 1.0000   
         C         C         1.0       0.2992303538912465  0.5559804551673666  0.7147013757554126 1.0000   
         C         C         1.0       0.2987577864775118  0.5797301339539297  0.7048504631711682 1.0000   
         C         C         1.0       0.2969341820891125  0.5842212269984657  0.6761810809407085 1.0000   
         C         C         1.0       0.2823949913637028  0.5005262127360771  0.7051682435962409 1.0000   
         C         C         1.0       0.18406158897234012           0.45719783258299784          0.7004663988583122 1.0000   
         C         C         1.0       0.19837575502506447           0.4527175968647725 0.6774978299981507 1.0000   
         C         C         1.0       0.22979409560523986           0.46607103919105175          0.678855734072475  1.0000   
         C         C         1.0       0.24580097712780832           0.4830469831552096 0.7030088349624329 1.0000   
         C         C         1.0       0.22997509713640357           0.48520003656375127          0.7251666156015882 1.0000   
         C         C         1.0       0.19955358174181778           0.47490273470389566          0.724073185611197  1.0000   
         C         C         1.0       0.2940562119971559  0.49582890963004883           0.7351139801989199 1.0000   
         C         C         1.0       0.32366609138770724           0.5159323030107903 0.7437550893786624 1.0000   
         C         C         1.0       0.33415250254928164           0.5104773332195374 0.7683842560698246 1.0000   
         C         C         1.0       0.3168412721070232  0.4851398982757734  0.7831871596032904 1.0000   
         C         C         1.0       0.2879113334911523  0.4621376962354766  0.7750308267787631 1.0000   
         C         C         1.0       0.27689424163764337           0.4686679034675321 0.7505370882660389 1.0000   
         C         C         1.0       0.28971265596879386           0.46043965141754944          0.6821446543598032 1.0000   
         C         C         1.0       0.3052405819638021  0.45038067182897307           0.66900320137009   1.0000   
         C         C         1.0       0.3331932427029919  0.4698289972126067  0.6582156051140727 1.0000   
         C         C         1.0       0.34386780591696975           0.4996013097889768 0.6584690130025225 1.0000   
         C         C         1.0       0.32818319694431697           0.5094501679343868 0.6728999396119323 1.0000   
         C         C         1.0       0.300237740267207   0.4900292196540582  0.685448565685161  1.0000   
         H         H         1.0       0.30695615522890896           0.653125612285486  0.62833743350263   1.0000   
         H         H         1.0       0.24012829792795232           0.5671501378331693 0.6603555435682493 1.0000   
         H         H         1.0       0.20162316489817303           0.574312126651245  0.6371153789481909 1.0000   
         H         H         1.0       0.2697916743588065  0.6554311219144812  0.6005714054388827 1.0000   
         H         H         1.0       0.2657069533544266  0.6059835083231878  0.7112540249714432 1.0000   
         H         H         1.0       0.26370684795291316           0.6373936849444705 0.7405888342410248 1.0000   
         H         H         1.0       0.35209570976291976           0.7086180094883069 0.7092337888637282 1.0000   
         H         H         1.0       0.3514358177273502  0.6752138121076651  0.6741888891738721 1.0000   
         H         H         1.0       0.2903820296489847  0.5650510226730723  0.635235443758856  1.0000   
         H         H         1.0       0.2838594097482531  0.5198124245270522  0.6514996080428038 1.0000   
         H         H         1.0       0.29519637095619883           0.5519703827119193 0.7377737244208276 1.0000   
         H         H         1.0       0.30412557768244514           0.5957164604715602 0.7219005237234766 1.0000   
         H         H         1.0       0.18449407905149445           0.4442291570521309 0.6577714138450327 1.0000   
         H         H         1.0       0.2443872474964495  0.46598621544987    0.662093086925696  1.0000   
         H         H         1.0       0.238377326909364   0.49445364104481127           0.7452492678656917 1.0000   
         H         H         1.0       0.1851827032457954  0.4751252411392577  0.7415470259310104 1.0000   
         H         H         1.0       0.339619023316608   0.5364014671687225  0.732204859053311  1.0000   
         H         H         1.0       0.3588638807060969  0.5248025710205653  0.7738641083915389 1.0000   
         H         H         1.0       0.27469538889348155           0.4400359243816337 0.7854675544488733 1.0000   
         H         H         1.0       0.25284606409210375           0.4537970763209474 0.7460900255889531 1.0000   
         H         H         1.0       0.26651266809329033           0.4418261409818965 0.687312425196007  1.0000   
         H         H         1.0       0.2971299115866994  0.4268788304350234  0.6691078183433998 1.0000   
         H         H         1.0       0.36657802655707494           0.5172592542119269 0.6500043648480436 1.0000   
         H         H         1.0       0.3383746805507462  0.5328314752774097  0.6738220288380488 1.0000   
         C         C         1.0       0.3115113284340327  0.4999078405626868  0.8505249863967228 1.0000   
         C         C         1.0       0.30835244077205076           0.5235977249972781 0.85055779849972   1.0000   
         C         C         1.0       0.28428227903556885           0.5210892190531287 0.865082151402881  1.0000   
         C         C         1.0       0.261750307675794   0.4947342650616107  0.8801522405900409 1.0000   
         C         C         1.0       0.2666889608341852  0.47204523054373115           0.8806644963820631 1.0000   
         C         C         1.0       0.2904047984984023  0.47377192609734575           0.8652535322938106 1.0000   
         H         H         1.0       0.32331556372669246           0.5426864637274452 0.8368677565529903 1.0000   
         H         H         1.0       0.2794548188461462  0.537279305494486   0.8647850544033762 1.0000   
         H         H         1.0       0.25282245958539157           0.45227048400826964          0.8941242811995013 1.0000   
         H         H         1.0       0.29323962075485394           0.45525467641375106          0.8660066215568862 1.0000   
         C         C         1.0       0.1972014175416682  0.44764849012898544           0.8734591514274618 1.0000   
         C         C         1.0       0.20827342745692523           0.4628546056645761 0.8986872447761324 1.0000   
         C         C         1.0       0.18860607061940962           0.4534805478360572 0.922737987483934  1.0000   
         C         C         1.0       0.1596144908214803  0.42896288624722756           0.9209948736395877 1.0000   
         C         C         1.0       0.14852377767040426           0.4151943412431436 0.8953042125597811 1.0000   
         C         C         1.0       0.1665441591797556  0.4239641920723397  0.8714593222061314 1.0000   
         C         C         1.0       0.23873757491559022           0.4940158293569586 0.9013599662513345 1.0000   
         C         C         1.0       0.22787415697809696           0.5159482381908783 0.8966526668606767 1.0000   
         C         C         1.0       0.22086471888272635           0.5278649345229259 0.9207482036855335 1.0000   
         C         C         1.0       0.21517136129819492           0.548698354202979  0.9165791672300023 1.0000   
         C         C         1.0       0.21617058754327498           0.5597998761288182 0.8888270808931994 1.0000   
         C         C         1.0       0.21647530517922053           0.543910543508271  0.865849847137905  1.0000   
         C         C         1.0       0.222506857766858   0.5221559025840443  0.8696328647732634 1.0000   
         C         C         1.0       0.2511203936801605  0.4802115887016474  0.9533542413985937 1.0000   
         C         C         1.0       0.2632074443817438  0.4898060389719061  0.9813246302071402 1.0000   
         C         C         1.0       0.2821453230255699  0.5199203998092802  0.9869157507085444 1.0000   
         C         C         1.0       0.2915904483155638  0.5390689163987656  0.96349258300187   1.0000   
         C         C         1.0       0.27938695661853924           0.5296757754141916 0.9362979126501594 1.0000   
         C         C         1.0       0.25594688791709563           0.5005883682019426 0.9309650074489055 1.0000   
         C         C         1.0       0.2888519950484175  0.5318243361521555  0.0185771063907052 1.0000   
         C         C         1.0       0.21137466561363605           0.5409049024263956 0.025841535313390285         1.0000   
         C         C         1.0       0.2077433897347486  0.514435259753204   0.032318811634201916         1.0000   
         C         C         1.0       0.2315069416762987  0.5107440202679362  0.03082478902992536          1.0000   
         C         C         1.0       0.2600802746367307  0.5341971883067655  0.02145447100271758          1.0000   
         C         C         1.0       0.2634801619429731  0.5612949819757418  0.016191620737642465         1.0000   
         C         C         1.0       0.23972940752493202           0.5642750831412391 0.018035191627037372         1.0000   
         C         C         1.0       0.3229644124845702  0.5610341288546988  0.022251711219742454         1.0000   
         C         C         1.0       0.3471824210120932  0.5636575431878058  0.007367533646660984         1.0000   
         C         C         1.0       0.35966667685804665           0.5663089543948988 0.5560906297823899 1.0000   
         C         C         1.0       0.36023433419303275           0.5602675972090807 0.584906525384207  1.0000   
         C         C         1.0       0.33279708373297473           0.5406515560695618 0.5992596521666028 1.0000   
         C         C         1.0       0.30474143559528966           0.5269271978393766 0.5849859240710721 1.0000   
         C         C         1.0       0.28216625698637304           0.5114865110432455 0.07150048557452071          1.0000   
         C         C         1.0       0.2844174063840082  0.494636084605522   0.09181033066491784          1.0000   
         C         C         1.0       0.299154045541432   0.48043638040858555           0.08513101643763599          1.0000   
         C         C         1.0       0.30987389868007365           0.48151324109185034          0.057178398085953486         1.0000   
         C         C         1.0       0.30389889211866405           0.49470958340581245          0.03663177785806204          1.0000   
         C         C         1.0       0.29182774671508077           0.5119064013178315 0.04252822307108772          1.0000   
         H         H         1.0       0.21051225463533377           0.45701760401604613          0.8538243434754818 1.0000   
         H         H         1.0       0.19512296454580513           0.46625065262932947          0.9427872809595028 1.0000   
         H         H         1.0       0.14317127535449972           0.4212450561293021 0.9383304880646973 1.0000   
         H         H         1.0       0.1610343405807713  0.41162067375765554           0.8524768142888459 1.0000   
         H         H         1.0       0.22118717092393708           0.521314101223785  0.9425908145345313 1.0000   
         H         H         1.0       0.21056147513130166           0.557509851792446  0.9353869862576494 1.0000   
         H         H         1.0       0.21420306567019945           0.5496893232486417 0.8447400617124513 1.0000   
         H         H         1.0       0.22436274066242406           0.511165434774049  0.852486501523893  1.0000   
         H         H         1.0       0.236325272097867   0.4563217554457422  0.9491508885538931 1.0000   
         H         H         1.0       0.25468788979921736           0.4750816560259265 0.9992517218012466 1.0000   
         H         H         1.0       0.30803691978491216           0.562757100298749  0.9666685488496389 1.0000   
         H         H         1.0       0.2867128279888673  0.5461348932822634  0.9193241028532408 1.0000   
         H         H         1.0       0.18610920088190117           0.4956607959533515 0.040682406691504136         1.0000   
         H         H         1.0       0.22866434145517178           0.4895393749211938 0.03626437820110717          1.0000   
         H         H         1.0       0.2856866749535633  0.5799298727310664  0.008018222077321724         1.0000   
         H         H         1.0       0.21704309790362292           0.5311553697567634 0.6146661776004017 1.0000   
         H         H         1.0       0.34289554905050634           0.5473553900600313 0.9934292715836893 1.0000   
         H         H         1.0       0.38152704210618127           0.5831316036561579 0.5450587978900873 1.0000   
         H         H         1.0       0.3320081165964544  0.5402374471395678  0.6227573848634381 1.0000   
         H         H         1.0       0.28391696958682716           0.512622941241347  0.594974202880643  1.0000   
         H         H         1.0       0.2732384787646822  0.5239962521517981  0.07718245959996639          1.0000   
         H         H         1.0       0.27694417019673634           0.4935362021206094 0.11363854083979641          1.0000   
         H         H         1.0       0.3199562057640705  0.46963154442277566           0.05015450449647907          1.0000   
         H         H         1.0       0.3125968768382063  0.4945476845037858  0.016210863369289452         1.0000   
         C         C         1.0       0.3288057578816717  0.4804376194891302  0.8103545294699592 1.0000   
         C         C         1.0       0.3379472151542451  0.5011732385487755  0.8361943058931259 1.0000   
         H         H         1.0       0.31193187746661827           0.4576839399750246 0.8175533011954498 1.0000   
         H         H         1.0       0.35009447937301624           0.48125935548755583          0.8041765105705676 1.0000   
         H         H         1.0       0.3493580074683006  0.49325013814790586           0.8496034373980018 1.0000   
         H         H         1.0       0.3556938495791908  0.524229854361286   0.8324890166532461 1.0000   
         C         C         1.0       0.3997504733364188  0.6127368784488295  0.6031155543409228 1.0000   
         C         C         1.0       0.389969069746833   0.5792316772628802  0.6031613986564808 1.0000   
         H         H         1.0       0.4223943859027099  0.6260723005315949  0.6133889560189973 1.0000   
         H         H         1.0       0.4056184166362628  0.6207758916659935  0.580976569136368  1.0000   
         H         H         1.0       0.3843202963135164  0.5715691023440698  0.6246777980775219 1.0000   
         H         H         1.0       0.4092575873607982  0.5771411173437643  0.59633902724019   1.0000   
         C         C         1.0       0.21894823636044825           0.5893951725880349 0.8863902699440429 1.0000   
         C         C         1.0       0.19387531352452317           0.591802005348705  0.9007905008255849 1.0000   
         H         H         1.0       0.22353287877938094           0.5967707205409898 0.8636633199379928 1.0000   
         H         H         1.0       0.24007190031888864           0.6052077655726499 0.8979391111562887 1.0000   
         H         H         1.0       0.1749857128056638  0.5711705681518323  0.9089566389110497 1.0000   
         H         H         1.0       0.18581921029392837           0.5990108201733599 0.8824052899838033 1.0000   
         C         C         1.0       0.3240159119608958  0.8594567587989314  0.8975498049081471 1.0000   
         C         C         1.0       0.3053759890390335  0.8608485111759866  0.9209276570388815 1.0000   
         H         H         1.0       0.33861031216066534           0.8841264453553367 0.8936967520875542 1.0000   
         H         H         1.0       0.3411246459093474  0.8546899717403165  0.9054173747182135 1.0000   
         H         H         1.0       0.2947543030895908  0.8717031028649259  0.9104600990448946 1.0000   
         H         H         1.0       0.3191706740908668  0.8745056382801755  0.9379739487089963 1.0000   
         C         C         1.0       0.3027201689669173  0.7210786351143854  0.08932988973220413          1.0000   
         C         C         1.0       0.36929877685259077           0.8949704234767448 0.6419693059845724 1.0000   
         H         H         1.0       0.3190820213251216  0.739885103426297   0.07431317190049014          1.0000   
         H         H         1.0       0.318483265681426   0.7140132485963845  0.09621807343574762          1.0000   
         H         H         1.0       0.3891204374019711  0.9066445664399787  0.65698986970439   1.0000   
         H         H         1.0       0.3674967589470379  0.8745360681898519  0.6363555411392157 1.0000   
         C         C         1.0       0.29629172284574623           0.7158610116079049 0.7313149243254693 1.0000   
         C         C         1.0       0.3066367098076207  0.6978891387512648  0.7472940761772233 1.0000   
         H         H         1.0       0.2780387908249026  0.7013938857071215  0.7140975503758438 1.0000   
         H         H         1.0       0.3157086382584651  0.7320735153539626  0.7176962651139974 1.0000   
         H         H         1.0       0.29035197856819966           0.6879757086887948 0.766524176817951  1.0000   
         H         H         1.0       0.33034226475130274           0.7141882548109604 0.7554885062759885 1.0000   
         C         C         1.0       0.14302944916559918           0.7232091043365423 0.8667314388098282 1.0000   
         C         C         1.0       0.11409143597248908           0.7163092695191202 0.8506752743761544 1.0000   
         H         H         1.0       0.13810179425871336           0.7027058876833402 0.8762878087162868 1.0000   
         H         H         1.0       0.14879157734539233           0.7394091526694038 0.8831384499711631 1.0000   
         H         H         1.0       0.10076045892791112           0.719950893435395  0.8649382999605699 1.0000   
         H         H         1.0       0.1182927154927707  0.732308560387917   0.834020941705038  1.0000   
         C         C         1.0       0.10124703026796893           0.617497898103795  0.9374188916293684 1.0000   
         C         C         1.0       0.11554338428748251           0.6426861695259775 0.9155820549981265 1.0000   
         H         H         1.0       0.1072364719063039  0.6252822668512634  0.9591286704947236 1.0000   
         H         H         1.0       0.11057047996318355           0.6031518968934314 0.9359221064409786 1.0000   
         H         H         1.0       0.10030604980508964           0.6441072911737404 0.9005304319166363 1.0000   
         H         H         1.0       0.13163738631915525           0.6398177548818961 0.9026499631441288 1.0000   
         C         C         1.0       0.8732385537340984  0.43710237901829074           0.9862882942265039 1.0000   
         C         C         1.0       0.8538218547201547  0.446433814899885   0.0023118247153075533        1.0000   
         H         H         1.0       0.8604483931597391  0.4185267363951285  0.9724772474528334 1.0000   
         H         H         1.0       0.8818307630084399  0.4289872116712348  0.0018745453466402218        1.0000   
         H         H         1.0       0.8410515429175354  0.45214744373900057           0.9887687010541539 1.0000   
         H         H         1.0       0.8348715079328758  0.4268422367766649  0.013898905662763417         1.0000   
         C         C         1.0       0.9360586005123314  0.5469795182073633  0.7307954542569685 1.0000   
         C         C         1.0       0.9481954555043206  0.5587011211858789  0.70016083658074   1.0000   
         H         H         1.0       0.9247184803286504  0.5225005142789325  0.7322559874085877 1.0000   
         H         H         1.0       0.919124867522498   0.5530288297862754  0.7344031541565855 1.0000   
         H         H         1.0       0.96762546047992    0.5567358059187045  0.6968474758512706 1.0000   
         H         H         1.0       0.9313257861089235  0.5421028547198277  0.6857927608786604 1.0000   
         C         C         1.0       0.05418689239954809           0.5505940365412076 0.0220420401228123 1.0000   
         C         C         1.0       0.07925747521788506           0.5603593353252297 0.04515747947320703          1.0000   
         H         H         1.0       0.04707891723139886           0.5287679771530498 0.015747009686487123         1.0000   
         H         H         1.0       0.061949198387767475          0.5630784153533519 0.0017337089580984344        1.0000   
         H         H         1.0       0.07367511949135497           0.5664693683600629 0.0660966508966987 1.0000   
         H         H         1.0       0.07913572624995069           0.5408993581517239 0.05102908610855095          1.0000   
         C         C         1.0       0.12551562458047785           0.7669499690858621 0.6773302957960101 1.0000   
         C         C         1.0       0.13454878115862365           0.7980406450331272 0.666262461076656  1.0000   
         H         H         1.0       0.13090777214185217           0.7704945387397877 0.7021760035704004 1.0000   
         H         H         1.0       0.13957194933221143           0.7603268205577652 0.6657250328715938 1.0000   
         H         H         1.0       0.11835517980651591           0.8029839999451341 0.6737550581884818 1.0000   
         H         H         1.0       0.13360549818516243           0.795187088633603  0.6424650150425548 1.0000   
         C         C         1.0       0.09592408283527423           0.37729665201129675          0.8703245123310224 1.0000   
         C         C         1.0       0.11844585541607515           0.3848448170866334 0.8955155515088385 1.0000   
         H         H         1.0       0.1073969622854576  0.3735223690694712  0.8521093454377922 1.0000   
         H         H         1.0       0.07676442272127723           0.35580321283709526          0.8735597648086878 1.0000   
         H         H         1.0       0.12037239500859956           0.36471804023003923          0.8973686082637061 1.0000   
         H         H         1.0       0.10757802096426113           0.3846838885790629 0.9153737270883706 1.0000   
         C         C         1.0       0.1429491888484936  0.46329472451642223           0.6861809559763793 1.0000   
         C         C         1.0       0.15107172381789322           0.44368641802687725          0.700787647285601  1.0000   
         H         H         1.0       0.1495216626257355  0.46619028696898585           0.6633188804498994 1.0000   
         H         H         1.0       0.15796913145699412           0.48536740011360935          0.6969540526491474 1.0000   
         H         H         1.0       0.14108667952819906           0.42179043848871434          0.6889794314706374 1.0000   
         H         H         1.0       0.1410395385322996  0.43664184490135766           0.7223394350796145 1.0000   
         C         C         1.0       0.1394350058952174  0.5661043952981446  0.8423924172406599 1.0000   
         C         C         1.0       0.13918517710722145           0.5875993127466569 0.8202282588791945 1.0000   
         H         H         1.0       0.13772658027207726           0.5743081029800572 0.8634547082553341 1.0000   
         H         H         1.0       0.16239672648488743           0.5699130181484091 0.8405983842838333 1.0000   
         H         H         1.0       0.14517988228150713           0.583550732082867  0.7980137991967119 1.0000   
         H         H         1.0       0.15861458187833577           0.6092539363861078 0.8233287876689164 1.0000   
         C         C         1.0       0.20901164471372846           0.6144326450284494 0.597886585875519  1.0000   
         C         C         1.0       0.21863952100279446           0.6437603851466943 0.5859023281778662 1.0000   
         H         H         1.0       0.20435131551471286           0.597726139419897  0.5800888030340067 1.0000   
         H         H         1.0       0.18669000736095684           0.6025900005014557 0.6102666933839015 1.0000   
         H         H         1.0       0.231960624072987   0.6625143773847928  0.6005947924665526 1.0000   
         H         H         1.0       0.23636372818764181           0.6512873573990535 0.5679704229699878 1.0000   
         C         C         1.0       0.16988711254563268           0.5368693924737703 0.9981435751624435 1.0000   
         C         C         1.0       0.18506367932416126           0.543970571998397  0.027690768052207826         1.0000   
         H         H         1.0       0.18277802243303334           0.5322310983446616 0.9824144942597896 1.0000   
         H         H         1.0       0.17127455769458827           0.5559811447080114 0.9878704725110743 1.0000   
         H         H         1.0       0.19056716723143252           0.5642812626251759 0.035146474409764705         1.0000   
         H         H         1.0       0.17053216293431553           0.5272074140911498 0.04377608667377375          1.0000   
         C         C         1.0       0.9542502487099984  0.4351744687419301  0.9371510692154007 1.0000   
         C         C         1.0       0.9414309878958493  0.4156137476510693  0.9100080028051056 1.0000   
         H         H         1.0       0.9634403202445063  0.45878944643048014           0.9331369127925152 1.0000   
         H         H         1.0       0.9334519629227855  0.42740871459236046           0.9514047377151503 1.0000   
         H         H         1.0       0.9245003286970367  0.417413121918168   0.8990962224448753 1.0000   
         H         H         1.0       0.9288207900469586  0.390904496871981   0.9168677375473367 1.0000   
         C         C         1.0       0.009422641319764447          0.5496984985233277 0.6599460517191522 1.0000   
         C         C         1.0       0.0161332290898184  0.5386964490397168  0.6873715278665117 1.0000   
         H         H         1.0       0.9874129750676633  0.528934139566564   0.6495253799563734 1.0000   
         H         H         1.0       0.002380942373548356          0.5633339144422148 0.668629348405452  1.0000   
         H         H         1.0       0.997707424289452   0.5355186375147736  0.7029615245085626 1.0000   
         H         H         1.0       0.03743032972491922           0.5572002132092834 0.6960890976800993 1.0000   
         C         C         1.0       0.08293942212656713           0.6761444285072882 0.47972711234153387          1.0000   
         C         C         1.0       0.04892654736363866           0.6635828044922671 0.4801665689596304 1.0000   
         H         H         1.0       0.0946343575010744  0.6988936597420923  0.48531936274717524          1.0000   
         H         H         1.0       0.09143881162773826           0.6751043060050496 0.4587064597874649 1.0000   
         H         H         1.0       0.04301344513627736           0.6619438456437169 0.4578183740476124 1.0000   
         H         H         1.0       0.0372891710174581  0.640877401799402   0.48664904590025093          1.0000   
         C         C         1.0       0.8247194701974193  0.8930897400800644  0.9411669407279377 1.0000   
         C         C         1.0       0.8224285262286448  0.8835993440855998  0.972817564302719  1.0000   
         H         H         1.0       0.8481763128000439  0.9082734628214286  0.934842452070976  1.0000   
         H         H         1.0       0.813781367213832   0.9062516400949626  0.9379126340799785 1.0000   
         H         H         1.0       0.8302757889641734  0.9032813452803133  0.9854108753511963 1.0000   
         H         H         1.0       0.8374837949098463  0.8748347294573968  0.9757302005356191 1.0000   
         C         C         1.0       0.6525525066687002  0.8308372935113739  0.7982754700380967 1.0000   
         C         C         1.0       0.6554041189609576  0.8189755305624574  0.8277391122537822 1.0000   
         H         H         1.0       0.6507786789845268  0.8492610687361359  0.8081213894331482 1.0000   
         H         H         1.0       0.6304782568385388  0.8148601477358431  0.7875035741045927 1.0000   
         H         H         1.0       0.6437896828554754  0.8234590734564909  0.8445472201192891 1.0000   
         H         H         1.0       0.6790897436558386  0.8311281069952368  0.8342613035698108 1.0000   
         C         C         1.0       0.3237464828756698  0.4731726682954852  0.12872235331086235          1.0000   
         C         C         1.0       0.29895264666492927           0.45863019569078983          0.10716025065913182          1.0000   
         H         H         1.0       0.32031139881094184           0.4553882500520039 0.1433233146596875 1.0000   
         H         H         1.0       0.3211517157187762  0.48961325728851296           0.14119421825244394          1.0000   
         H         H         1.0       0.30056187125576106           0.4408789844920148 0.096128363890841  1.0000   
         H         H         1.0       0.2764147768555011  0.4436085470292614  0.11831984488686786          1.0000   
         C         C         1.0       0.6008044775159062  0.6921635457426751  0.5811625747430255 1.0000   
         C         C         1.0       0.5905402396577306  0.7137420644164945  0.5878172061031294 1.0000   
         H         H         1.0       0.6198539727617962  0.6962618717705922  0.5957302859653839 1.0000   
         H         H         1.0       0.611218073770733   0.6958979827490542  0.5593322190250304 1.0000   
         H         H         1.0       0.5803244173501545  0.7104531834296163  0.6089721893756028 1.0000   
         H         H         1.0       0.5717627111690506  0.7082389308475676  0.5718066103416419 1.0000   
         C         C         1.0       0.36219742671397614           0.44534763515339165          0.6679715966512494 1.0000   
         C         C         1.0       0.35597134668941066           0.4627453473374557 0.6466032183092035 1.0000   
         H         H         1.0       0.33992662768001697           0.4264441052500221 0.6753447168654678 1.0000   
         H         H         1.0       0.37480775364922914           0.4368730789627461 0.6535681437363515 1.0000   
         H         H         1.0       0.34522626838760945           0.4483563650031148 0.6273000280987987 1.0000   
         H         H         1.0       0.3780574020434619  0.4829309237521527  0.6385788365891442 1.0000   
         C         C         1.0       0.32640698643943744           0.46206265291492005          0.965968508470465  1.0000   
         C         C         1.0       0.3303252998108708  0.47498539080917573           0.9352362869365286 1.0000   
         H         H         1.0       0.3059177748246402  0.46066091067348036           0.9740764688641209 1.0000   
         H         H         1.0       0.3162453411354613  0.4379104861058894  0.9642048754423105 1.0000   
         H         H         1.0       0.33255165734011194           0.49715129395238566          0.9357965661778689 1.0000   
         H         H         1.0       0.3081889753404971  0.46071174478215804           0.923980534045212  1.0000   
         C         C         1.0       0.45250068262108556           0.6250207328159381 0.7245077961192024 1.0000   
         C         C         1.0       0.4325966933506735  0.620429208191005   0.6987456498031411 1.0000   
         H         H         1.0       0.47838836172064003           0.6402153083189698 0.7191436742210806 1.0000   
         H         H         1.0       0.447035296686057   0.6337340307890141  0.7438278296005226 1.0000   
         H         H         1.0       0.435106475463587   0.6413120526310517  0.6936569487192511 1.0000   
         H         H         1.0       0.4082803159180168  0.6038773343615819  0.705071807908907  1.0000   
         C         C         1.0       0.5473168141905096  0.5917925509986529  0.9495957540741676 1.0000   
         C         C         1.0       0.5499709571906582  0.6214166029462121  0.9434262015863947 1.0000   
         H         H         1.0       0.5457654931376316  0.5900542094219248  0.9731574272546222 1.0000   
         H         H         1.0       0.5684258953782682  0.5928326315252564  0.9430300629780538 1.0000   
         H         H         1.0       0.5545893399013023  0.6336686886289907  0.9640609450647438 1.0000   
         H         H         1.0       0.5275077830281895  0.6166811414988825  0.9390133937940048 1.0000   
         C         C         1.0       0.4624819210574783  0.3763673531647114  0.888682192405063  1.0000   
         C         C         1.0       0.4384531870366095  0.3825677238418219  0.89958374097186   1.0000   
         H         H         1.0       0.46710977267681236           0.38224548744270603          0.8649300026862187 1.0000   
         H         H         1.0       0.45083842016154346           0.3520215782412666 0.8883882545555485 1.0000   
         H         H         1.0       0.4179583528065946  0.3650382861681176  0.8883116968813026 1.0000   
         H         H         1.0       0.4342037236639653  0.3749946423652957  0.9219086905787318 1.0000   
         C         C         1.0       0.5184755215556427  0.4895950575177157  0.05063123138750014          1.0000   
         C         C         1.0       0.5138515996880361  0.46855910618335833           0.07526328117433767          1.0000   
         H         H         1.0       0.5398751978914795  0.5119593664095397  0.05553644690395565          1.0000   
         H         H         1.0       0.5218614889294313  0.48045475562433265           0.029493031553230686         1.0000   
         H         H         1.0       0.5226722348088099  0.5337406618078927  0.5396058897273637 1.0000   
         H         H         1.0       0.5592944589804172  0.5480274537386499  0.5287413872172312 1.0000   
         C         C         1.0       0.5103636759809237  0.5007390430941651  0.6338167703610231 1.0000   
         C         C         1.0       0.4824488008191123  0.468224700105574   0.6280605361440762 1.0000   
         H         H         1.0       0.5306757103008819  0.5057903347360552  0.6197334719914542 1.0000   
         H         H         1.0       0.5185710643140711  0.5022409089737865  0.6553052233955897 1.0000   
         H         H         1.0       0.4609917633303543  0.4621975355247845  0.6399156910446163 1.0000   
         H         H         1.0       0.47579793794048825           0.4636799980505162 0.6056972325589848 1.0000   
         C         C         1.0       0.5425356527697288  0.4958098046239175  0.7805134085382109 1.0000   
         C         C         1.0       0.5311103736904944  0.47824844611657874           0.8065911341268297 1.0000   
         H         H         1.0       0.5658330199759282  0.515405328498872   0.7852608806335188 1.0000   
         H         H         1.0       0.5499332361624876  0.4845492246601992  0.7648791511921292 1.0000   
         H         H         1.0       0.509619097634768   0.4727762820072692  0.8168732032258504 1.0000   
         H         H         1.0       0.5446598218200344  0.4906908321287084  0.823980639620777  1.0000   
         C         C         1.0       0.6256428257968576  0.3992386151234     0.5748539658028282 1.0000   
         C         C         1.0       0.6105827057429639  0.37764748049612096           0.5995479275987108 1.0000   
         H         H         1.0       0.6356647705099352  0.3895560172416988  0.5603615284529425 1.0000   
         H         H         1.0       0.6458227893645619  0.4209698553891402  0.5825200214761874 1.0000   
         H         H         1.0       0.6277194094307574  0.37369883778725616           0.6103155064256551 1.0000   
         H         H         1.0       0.5921902998254172  0.35519451362111026           0.5926795407959615 1.0000   
         C         C         1.0       0.6339685020588997  0.3681292214582387  0.8489369556213969 1.0000   
         C         C         1.0       0.6537876699109199  0.39006428020934925           0.8729889589270253 1.0000   
         H         H         1.0       0.6204872653048654  0.34470228888906523           0.8562913250009648 1.0000   
         H         H         1.0       0.6492911079533094  0.36871634637099626           0.8319054581368387 1.0000   
         H         H         1.0       0.6715851656634846  0.4097714715953241  0.8606268612002017 1.0000   
         H         H         1.0       0.6653074634287556  0.38354092035989557           0.8888036041043674 1.0000   
         C         C         1.0       0.8841155330998528  0.601575100199342   0.9709770213433777 1.0000   
         C         C         1.0       0.9182518285499417  0.6144119989820702  0.9695068218125634 1.0000   
         H         H         1.0       0.8796423149577612  0.6100295054858871  0.989678963830656  1.0000   
         H         H         1.0       0.8723042643984344  0.577598454678467   0.974490571519392  1.0000   
         H         H         1.0       0.9299035519050426  0.6338332424666264  0.9561661555188584 1.0000   
         H         H         1.0       0.928353434458471   0.6230011073388665  0.9911761930217824 1.0000   
         C         C         1.0       0.7135994638269285  0.6860456503418557  0.03874982746519806          1.0000   
         C         C         1.0       0.6830628524751795  0.6784727159635888  0.02566880542856942          1.0000   
         H         H         1.0       0.732544823457669   0.7092601934759156  0.03596826773901607          1.0000   
         H         H         1.0       0.7071970016423648  0.6797116924903805  0.06293169412311217          1.0000   
         H         H         1.0       0.6639493496484087  0.6597024372758031  0.035610409562056855         1.0000   
         H         H         1.0       0.6782294242064083  0.668188181311594   0.003842895052264872         1.0000   
         C         C         1.0       0.8251767201972713  0.7132626255572283  0.816646407473754  1.0000   
         C         C         1.0       0.8436537145800851  0.744609034383445   0.8272383134258269 1.0000   
         H         H         1.0       0.8383831874896281  0.7148768886779018  0.7958427241303734 1.0000   
         H         H         1.0       0.8026088495352198  0.706256337189076   0.8105517116811992 1.0000   
         H         H         1.0       0.856720881735866   0.7431595836939106  0.8457601120725754 1.0000   
         H         H         1.0       0.8601577245527503  0.7582408352707515  0.8099750189143702 1.0000   
         C         C         1.0       0.6095562003210752  0.5563537406793811  0.952835245560764  1.0000   
         C         C         1.0       0.5903569073092354  0.5354729887846152  0.9278798553003841 1.0000   
         H         H         1.0       0.5935205690344684  0.5520625390330997  0.9708158698052577 1.0000   
         H         H         1.0       0.6169168912809428  0.5801106760001579  0.9483246683137956 1.0000   
         H         H         1.0       0.6044513695965982  0.545260116029361   0.9087724326128226 1.0000   
         H         H         1.0       0.5691696043193079  0.5363088231566717  0.9263377037469219 1.0000   
         C         C         1.0       0.9585980692789492  0.7260968981519526  0.776215432838213  1.0000   
         C         C         1.0       0.9266258967325899  0.7122811999407362  0.7887377855926135 1.0000   
         H         H         1.0       0.9664966318328987  0.7489468720344302  0.7673866351109067 1.0000   
         H         H         1.0       0.9759513646593088  0.7317264966695182  0.7907928311852261 1.0000   
         H         H         1.0       0.929394551343984   0.7248156824261677  0.8071496470575349 1.0000   
         H         H         1.0       0.9172040608689376  0.6896022903005983  0.7965547568376891 1.0000   
         C         C         1.0       0.5939592082211446  0.6128130310093707  0.7699482533212644 1.0000   
         C         C         1.0       0.6017410265459333  0.5891074337165246  0.7696102684321384 1.0000   
         H         H         1.0       0.5677663515401529  0.5995566033287928  0.7729783512069133 1.0000   
         H         H         1.0       0.6008329683518145  0.6291416676187009  0.750653360792894  1.0000   
         H         H         1.0       0.5972957380794275  0.58241226277776    0.7934450378696788 1.0000   
         H         H         1.0       0.5838324125454581  0.5695305994591385  0.7571018733390813 1.0000   
         C         C         1.0       0.832021582217788   0.8204262071100152  0.7005011437005049 1.0000   
         C         C         1.0       0.7981966295654191  0.8063884100990338  0.6888278138351708 1.0000   
         H         H         1.0       0.849607117813639   0.8362603895158086  0.6846873709525568 1.0000   
         H         H         1.0       0.8352693032465413  0.8328068958739692  0.7206826414500742 1.0000   
         H         H         1.0       0.7835723363027761  0.7873107817514937  0.7034773567375316 1.0000   
         H         H         1.0       0.7959059406609715  0.795867533643911   0.6669864880949724 1.0000   
         C         C         1.0       0.7732934643375287  0.5488740474007963  0.07522229580673612          1.0000   
         C         C         1.0       0.910720196361152   0.7092916361142377  0.6173185033970418 1.0000   
         H         H         1.0       0.932635636854882   0.7527991493811031  0.5986533003845479 1.0000   
         H         H         1.0       0.765795021857907   0.5254567618139213  0.06982378029516045          1.0000   
         H         H         1.0       0.9311930442112971  0.7111620598869864  0.625875527224731  1.0000   
         H         H         1.0       0.8983245469144358  0.6867578469102754  0.6080336900867044 1.0000   
         C         C         1.0       0.7710127233628485  0.5513352231719344  0.7519399745077346 1.0000   
         C         C         1.0       0.7623784330631667  0.5363875482859762  0.7822471207963732 1.0000   
         H         H         1.0       0.766163700243287   0.535004821093652   0.7346542752943723 1.0000   
         H         H         1.0       0.7947351226805596  0.5672564886560635  0.7517971444494919 1.0000   
         H         H         1.0       0.7718910935361237  0.5221524231035489  0.7827227239515896 1.0000   
         H         H         1.0       0.7370792216878159  0.520791895398784   0.78216273937639   1.0000   
         C         C         1.0       0.6046606359168736  0.5542945544471102  0.624543372382249  1.0000   
         C         C         1.0       0.6356888092573312  0.5732192425438208  0.6119585601744585 1.0000   
         H         H         1.0       0.5882890719311223  0.5503301228810762  0.6063717006924858 1.0000   
         H         H         1.0       0.5990152544774323  0.5660786631520648  0.6401424859519265 1.0000   
         H         H         1.0       0.6368816455549671  0.592056396530478   0.6018536253346143 1.0000   
         H         H         1.0       0.6406953014591078  0.5609106268548146  0.5957358282216265 1.0000   
         C         C         1.0       0.20436004950616732           0.8697858044501989 0.9978856951512386 1.0000   
         C         C         1.0       0.1876518576708963  0.846850781072063   0.020640836422854525         1.0000   
         H         H         1.0       0.19477935445112357           0.8613520949862479 0.9764114565084607 1.0000   
         H         H         1.0       0.19812570145523647           0.8871680363394318 0.999791888927349  1.0000   
         H         H         1.0       0.16388871961839244           0.8411484872210848 0.024189252095290437         1.0000   
         H         H         1.0       0.1976909268798752  0.8546914491558278  0.04195331081630349          1.0000   
         C         C         1.0       0.318445302825145   0.997879986555245   0.7631036643373007 1.0000   
         C         C         1.0       0.2888572246851154  0.9708804227810909  0.7739253661008069 1.0000   
         H         H         1.0       0.3274132076619223  0.014694632322475476         0.78069866012498   1.0000   
         H         H         1.0       0.3121208631585483  0.0065829171022939725        0.744505186230954  1.0000   
         H         H         1.0       0.29192430852851126           0.9674399957420329 0.7958617171333008 1.0000   
         H         H         1.0       0.27240065004310127           0.9775752062625063 0.7755422841398311 1.0000   
         C         C         1.0       0.3531285813516817  0.8684030004099738  0.1115795974417697 1.0000   
         C         C         1.0       0.3617645839433473  0.9721604566445238  0.5556192084718954 1.0000   
         H         H         1.0       0.356221400181      0.8797491519721181  0.1332648893594881 1.0000   
         H         H         1.0       0.3388327580577901  0.8453523941845128  0.11670108798918122          1.0000   
         H         H         1.0       0.3503139226156317  0.9844321698673021  0.5601007585992421 1.0000   
         H         H         1.0       0.3501632400492664  0.9555004340869413  0.5712382051129473 1.0000   
         C         C         1.0       0.39523407655649295           0.8865233569253476 0.7822755038368675 1.0000   
         C         C         1.0       0.3729296724758908  0.878770184998919   0.8079474640863682 1.0000   
         H         H         1.0       0.38146990988683643           0.8689170569738258 0.7659425855423475 1.0000   
         H         H         1.0       0.4125927725756114  0.8810878648678697  0.7883057449705917 1.0000   
         H         H         1.0       0.35806457017195675           0.8545555672633474 0.8088196641922623 1.0000   
         H         H         1.0       0.3566972067670658  0.8857899514888984  0.8026402236617917 1.0000   
         C         C         1.0       0.7904142427467247  0.9079465392526566  0.8218328356418733 1.0000   
         C         C         1.0       0.7767452556365062  0.9139326157898067  0.7952837951761945 1.0000   
         H         H         1.0       0.8150474423688426  0.9259374856481826  0.8223599498629679 1.0000   
         H         H         1.0       0.7795210494461596  0.9102798255391822  0.8420028174819788 1.0000   
         H         H         1.0       0.7635250695835792  0.8940539647911855  0.7822397733538159 1.0000   
         H         H         1.0       0.7955017836755747  0.9292582894470917  0.7821689571113006 1.0000   
         C         C         1.0       0.5573317025472913  0.9704219009041438  0.9560516372335232 1.0000   
         C         C         1.0       0.5310920874130547  0.9368139548550766  0.9559962572856051 1.0000   
         H         H         1.0       0.5570130126411899  0.9786872427647642  0.9776597220956524 1.0000   
         H         H         1.0       0.5520317242458777  0.9828168666593898  0.9407402553406569 1.0000   
         H         H         1.0       0.5290842530149071  0.9259226286875936  0.9789814869863728 1.0000   
         H         H         1.0       0.5354169046077986  0.9223384040063652  0.9428292261057777 1.0000   
         C         C         1.0       0.8418947564053205  0.0029499597384918808        0.7123244675721521 1.0000   
         C         C         1.0       0.8404294579558811  0.028641575126022722         0.7259199342517049 1.0000   
         H         H         1.0       0.8480027627899219  0.008901876341480541         0.6896800423979678 1.0000   
         H         H         1.0       0.8621774357228807  0.0046503024171582474        0.7232097436567001 1.0000   
         H         H         1.0       0.8645121757833015  0.04738053098299155           0.7251109002954864 1.0000   
         H         H         1.0       0.8365526585018642  0.025396160606731888         0.7500754494097581 1.0000   
         C         C         1.0       0.7175073032603038  0.9226545031576926  0.030588385206517854         1.0000   
         C         C         1.0       0.7232701366461447  0.9325799616444372  0.9985940235857487 1.0000   
         H         H         1.0       0.7286964240668119  0.9095574212143336  0.03181559447996296          1.0000   
         H         H         1.0       0.6926836014986527  0.9058499562527929  0.03459842926349799          1.0000   
         H         H         1.0       0.7160336591978064  0.9126764555728898  0.9853769334912347 1.0000   
         H         H         1.0       0.7494267657733699  0.9476893957963441  0.9940150311008915 1.0000   
         C         C         1.0       0.5833922169873071  0.8710606529179856  0.7233736511271038 1.0000   
         C         C         1.0       0.6118435636239115  0.8715178244930097  0.7352969765103843 1.0000   
         H         H         1.0       0.5726893872469445  0.8561353576731178  0.7060681457415406 1.0000   
         H         H         1.0       0.565860735791457   0.8627374401282489  0.740362532108972  1.0000   
         H         H         1.0       0.6247604060590014  0.8705080229973551  0.7166261924749763 1.0000   
         H         H         1.0       0.60416231939595    0.8507568256573065  0.7442069852648838 1.0000   
         C         C         1.0       0.568573220261346   0.9878843689084298  0.582313107828132  1.0000   
         C         C         1.0       0.578259414779519   0.020291917778765933         0.5776245262874686 1.0000   
         H         H         1.0       0.5773800342127372  0.9801864923262045  0.5639675654144424 1.0000   
         H         H         1.0       0.5431530620409709  0.9737932409342376  0.5830274307741627 1.0000   
         H         H         1.0       0.5831530117922382  0.02583848019945667           0.5547265693036458 1.0000   
         H         H         1.0       0.5997420598170222  0.03680771093315971           0.5873668648939682 1.0000   
         C         C         1.0       0.0025782449113673778         0.2919408630188731 0.9569209857574258 1.0000   
         C         C         1.0       0.03230652831626735           0.31895235436773944          0.9683636489249376 1.0000   
         H         H         1.0       0.9273266713262116  0.40247581467091426           0.6695478792867807 1.0000   
         H         H         1.0       0.0013367257517997722         0.2973940044863478 0.934016466245368  1.0000   
         H         H         1.0       0.04928761341743959           0.3232656670390505 0.9514665839235854 1.0000   
         H         H         1.0       0.04042506993521555           0.3122966662991547 0.9879120591352573 1.0000   
         C         C         1.0       0.7434587682782829  0.12050196561416106           0.9147903481442604 1.0000   
         C         C         1.0       0.7234803339018024  0.13355880933990744           0.912133298097298  1.0000   
         H         H         1.0       0.7602237483919912  0.13103009271293758           0.9327693674492591 1.0000   
         H         H         1.0       0.7564850196613861  0.1256472652226162  0.8930983025705609 1.0000   
         H         H         1.0       0.7154832105232922  0.13086045134972027           0.8892832823325875 1.0000   
         H         H         1.0       0.7025400156779211  0.12135607723181496           0.9269538253842264 1.0000   
         C         C         1.0       0.8064398068078518  0.192698168485293   0.6346347414559927 1.0000   
         C         C         1.0       0.8216369048971129  0.18782877816023216           0.6594032974516351 1.0000   
         H         H         1.0       0.7825424863663448  0.1763327969558808  0.6325671630586421 1.0000   
         H         H         1.0       0.8152550997119329  0.18868887165660048           0.6150234129558985 1.0000   
         H         H         1.0       0.8308432440044109  0.1428181726217165  0.1277511054816518 1.0000   
         H         H         1.0       0.8181320228548273  0.19771501647780787           0.6772829565527828 1.0000   
         C         C         1.0       0.8903467321357899  0.3017249458053037  0.6606779064829682 1.0000   
         C         C         1.0       0.9238238734362755  0.3180859862745437  0.6546501710646175 1.0000   
         H         H         1.0       0.8819752979973655  0.31686745708786984           0.656230650001382  1.0000   
         H         H         1.0       0.877588967702445   0.2850486802375116  0.6432273687761566 1.0000   
         H         H         1.0       0.9270600902034558  0.32069067483650343           0.6309358511918619 1.0000   
         H         H         1.0       0.9333964785595419  0.30467428707354344           0.6600984740475832 1.0000   
         C         C         1.0       0.6070838671735135  0.05472623878329208           0.7867081694954051 1.0000   
         C         C         1.0       0.6001003636316465  0.079255347592599   0.7866715981632866 1.0000   
         H         H         1.0       0.6228436841113302  0.05912973415447942           0.8042017484517991 1.0000   
         H         H         1.0       0.5876224497619349  0.03659945579998757           0.7961027578181167 1.0000   
         H         H         1.0       0.5885615245068692  0.07610810363529041           0.8085843477347655 1.0000   
         H         H         1.0       0.5847602333680082  0.07461610051016065           0.7678090158320486 1.0000   
         C         C         1.0       0.7788294109208515  0.11362691112237698           0.7998115445777616 1.0000   
         C         C         1.0       0.7448586432890434  0.0892790826982206  0.7975092081938044 1.0000   
         H         H         1.0       0.7931621334663144  0.10638640058623235           0.7883659543185388 1.0000   
         H         H         1.0       0.7845898994298987  0.11073651423964008           0.8205029006776833 1.0000   
         H         H         1.0       0.7372595996975023  0.09308569445801385           0.7764940133748327 1.0000   
         H         H         1.0       0.7307155679311685  0.09282338624584163           0.8126852953781455 1.0000   
         C         C         1.0       0.9268923950093354  0.3237942560975612  0.845474438800032  1.0000   
         C         C         1.0       0.9258505969530959  0.309372594409662   0.8750207485093698 1.0000   
         H         H         1.0       0.9502816885184191  0.33500395124059923           0.833599269443446  1.0000   
         H         H         1.0       0.9225966340693141  0.34217415676737645           0.8501888554485948 1.0000   
         H         H         1.0       0.9321861054028022  0.29392697964068915           0.8700250883036169 1.0000   
         H         H         1.0       0.9448995235809432  0.32619047496247794           0.8880916948554526 1.0000   
         C         C         1.0       0.6890156565426493  0.28255025107326087           0.7080987489146542 1.0000   
         C         C         1.0       0.688779907817837   0.2797819776523245  0.6756967109728256 1.0000   
         H         H         1.0       0.6693747510411573  0.2820104732821958  0.7144910712577429 1.0000   
         H         H         1.0       0.7069532918429056  0.3055880081028496  0.712861562900082  1.0000   
         H         H         1.0       0.6815184878145676  0.2925540969864651  0.6653329241893237 1.0000   
         H         H         1.0       0.6698260906339633  0.2585218094768732  0.6704683866255452 1.0000   
         C         C         1.0       0.4799884045562907  0.2621892636625947  0.11410089361049991          1.0000   
         C         C         1.0       0.42418037054914826           0.3197198817035449 0.5424138457667882 1.0000   
         H         H         1.0       0.46078527215605913           0.2649006807156892 0.10669777391286361          1.0000   
         H         H         1.0       0.3900311811028132  0.2755623846448155  0.533258228097016  1.0000   
         H         H         1.0       0.4105430025658875  0.32827206171603207           0.5416196003797701 1.0000   
         H         H         1.0       0.4234714369587023  0.31294976142636666           0.5650129130468203 1.0000   
         C         C         1.0       0.4121519536863414  0.07215639694987264           0.014500311321207437         1.0000   
         C         C         1.0       0.42139734940059453           0.05294117791863395          0.001072866592780164         1.0000   
         H         H         1.0       0.40041286324794806           0.06362939751808194          0.035844337706835816         1.0000   
         H         H         1.0       0.39501812970535405           0.06999390362892388          0.9993395162770939 1.0000   
         H         H         1.0       0.4427566988030125  0.05801137007125612           0.011768547729741563         1.0000   
         H         H         1.0       0.429299203820622   0.05956794460210401           0.9786051444860866 1.0000   
         C         C         1.0       0.5947507339952918  0.18308614073309146           0.6368985890559389 1.0000   
         C         C         1.0       0.5820586555923086  0.1629534865788639  0.6101662821278436 1.0000   
         H         H         1.0       0.6135358402714022  0.18213582728526065           0.642786526951171  1.0000   
         H         H         1.0       0.579566718751976   0.17388880845477356           0.6567880624785561 1.0000   
         H         H         1.0       0.57250951776376    0.17297653662681756           0.5953255499115772 1.0000   
         H         H         1.0       0.5280832434035594  0.03740379638096347           0.9676418473025732 1.0000   
         C         C         1.0       0.7421179105226171  0.3105421237810777  0.9571675475770274 1.0000   
         C         C         1.0       0.7088323100652333  0.29036038677139986           0.9519350404497673 1.0000   
         H         H         1.0       0.7438680560260971  0.31740322420222256           0.97901063091583   1.0000   
         H         H         1.0       0.7536518959359403  0.3313390246256534  0.9445800397800138 1.0000   
         H         H         1.0       0.7060221353470743  0.2825992465726759  0.9308707089466066 1.0000   
         H         H         1.0       0.7046549929161654  0.3083402738446904  0.9495903530284582 1.0000   
         C         C         1.0       0.44996831974458745           0.23699729116001095          0.7331238988576948 1.0000   
         C         C         1.0       0.46030035652897466           0.26922448716051767          0.7275384868275506 1.0000   
         H         H         1.0       0.43440739460208383           0.22866143134542274          0.7507998897423839 1.0000   
         H         H         1.0       0.43591886953801345           0.22454072810269832          0.7149227143050171 1.0000   
         H         H         1.0       0.4409660758531951  0.2702808033827444  0.7249285178927278 1.0000   
         H         H         1.0       0.4747008201636871  0.2769269751734296  0.7081906939844425 1.0000   
         C         C         1.0       0.5544227079662707  0.12151363680763047           0.7184367420632607 1.0000   
         C         C         1.0       0.5499884866641394  0.10674149853654855           0.7478833948853156 1.0000   
         H         H         1.0       0.5368308231219187  0.10804603364033566           0.7025884736320281 1.0000   
         H         H         1.0       0.5763224946486404  0.12551059275845666           0.7103701458084242 1.0000   
         H         H         1.0       0.5706124426597198  0.10633544537784877           0.7544052667108648 1.0000   
         H         H         1.0       0.5521544413128892  0.12036634672871982           0.7667371265848565 1.0000   
         C         C         1.0       0.4899647119180017  0.06822388921276135           0.9289384138202069 1.0000   
         C         C         1.0       0.4691736644212629  0.07912116443799322           0.9196586871906512 1.0000   
         H         H         1.0       0.49829640712309425           0.07748537277856138          0.9517839660654349 1.0000   
         H         H         1.0       0.5099891722470826  0.08010733887184762           0.9143898847720798 1.0000   
         H         H         1.0       0.4563379945806221  0.08021471534294777           0.9378303724883917 1.0000   
         H         H         1.0       0.4500471152150754  0.06446920589545058           0.9063859930118422 1.0000   
         C         C         1.0       0.5434589747508308  0.2943483800446978  0.9160506045954001 1.0000   
         C         C         1.0       0.5164515461856185  0.28497752698678674           0.93751432246519   1.0000   
         H         H         1.0       0.5427866666243282  0.30575691720915416           0.8953406098152945 1.0000   
         H         H         1.0       0.5651491230778403  0.31267937043798405           0.9238242548249331 1.0000   
         H         H         1.0       0.49566502913190263           0.27770241749545715          0.9255184112039502 1.0000   
         H         H         1.0       0.5208342484195426  0.3062589995959684  0.9480129180070873 1.0000   
         C         C         1.0       0.6469604669638176  0.35112903408622576           0.7155907398028707 1.0000   
         C         C         1.0       0.6332301882992248  0.362838994324082   0.6932971435083217 1.0000   
         H         H         1.0       0.657117477784943   0.3676692593611468  0.7336807998904046 1.0000   
         H         H         1.0       0.6666193394703693  0.3509588756893134  0.707514084003357  1.0000   
         H         H         1.0       0.613665383798136   0.36262170946297473           0.7017260229235346 1.0000   
         H         H         1.0       0.6487865813969826  0.3857978587597326  0.6901208237892223 1.0000   
         C         C         1.0       0.6594356841415544  0.1948834344018703  0.9176948185024826 1.0000   
         C         C         1.0       0.6919698814317274  0.21990005916998084           0.9076345835938264 1.0000   
         H         H         1.0       0.6583835547798265  0.1930815023958371  0.9406153842131768 1.0000   
         H         H         1.0       0.656099603673155   0.17394098424579188           0.9127706161151223 1.0000   
         H         H         1.0       0.7063382343762349  0.214987869861312   0.9196699729582758 1.0000   
         H         H         1.0       0.6971117502803286  0.2427092722460833  0.9133875096713086 1.0000

