data_0
_chemical_formula_sum                   'C1200 H960'
_cell_length_a                          33.220104201343815
_cell_length_b                          34.970563361704336
_cell_length_c                          45.67532505557797
_cell_angle_alpha                       91.5379947009176
_cell_angle_beta                        87.93880673769306
_cell_angle_gamma                       125.38353326594019
_space_group_name_H-M_alt               'P 1'
_space_group_IT_number                  1
loop_
  _space_group_symop_operation_xyz
         'x, y, z' 
loop_
  _atom_site_type_symbol
  _atom_site_label
  _atom_site_symmetry_multiplicity
  _atom_site_fract_x
  _atom_site_fract_y
  _atom_site_fract_z
  _atom_site_occupancy
         C         C         1.0       0.4017590381531292  0.8006120456653061  0.3388799922757657 1.0000   
         C         C         1.0       0.4210586645547265  0.846880686434394   0.34047719055720793          1.0000   
         C         C         1.0       0.42357416674220966           0.86791227343278   0.3671981847514401 1.0000   
         C         C         1.0       0.4011842165500545  0.8392507058054544  0.3928959188945703 1.0000   
         C         C         1.0       0.38705694219969494           0.7946097807862103 0.3912819018710676 1.0000   
         C         C         1.0       0.38573994333266276           0.7746417574284368 0.3644749635458608 1.0000   
         H         H         1.0       0.4383916249982613  0.8683345563447354  0.32213901831330205          1.0000   
         H         H         1.0       0.4389640861062202  0.9036665963991072  0.36723183615038585          1.0000   
         H         H         1.0       0.3764231611793763  0.7740458629658278  0.41054322165014534          1.0000   
         H         H         1.0       0.37342877321026674           0.7371312086556789 0.3632377390595081 1.0000   
         C         C         1.0       0.319516229028991   0.7940498982927842  0.44325721183001193          1.0000   
         C         C         1.0       0.3653140427810146  0.8351034660699036  0.4473815829094204 1.0000   
         C         C         1.0       0.3776076693726065  0.8510820721624637  0.4760585796700991 1.0000   
         C         C         1.0       0.35057997066474433           0.8229735057822495 0.4996927117393841 1.0000   
         C         C         1.0       0.3057141927988046  0.782299204951303   0.49475508465871504          1.0000   
         C         C         1.0       0.2896194004501884  0.7666908954490875  0.4670970618959902 1.0000   
         C         C         1.0       0.4027371460421033  0.8644828289046569  0.4212511210953096 1.0000   
         C         C         1.0       0.3877460345115617  0.8995627907844936  0.4179970051100215 1.0000   
         C         C         1.0       0.4096873729581414  0.9415153698929519  0.43313429515810103          1.0000   
         C         C         1.0       0.390078488782554   0.967341527660451   0.4312422747908862 1.0000   
         C         C         1.0       0.3477343815769999  0.9497093443488485  0.417975128372462  1.0000   
         C         C         1.0       0.3254761251969765  0.9087346939536518  0.4009912458747797 1.0000   
         C         C         1.0       0.34768487293616196           0.8853374929982328 0.3990437058516437 1.0000   
         C         C         1.0       0.4679789970673223  0.8562051813988517  0.44732570720899195          1.0000   
         C         C         1.0       0.5051579510107757  0.8802702855495357  0.46661365523798876          1.0000   
         C         C         1.0       0.5414771847703711  0.9279447649811723  0.46311996038540193          1.0000   
         C         C         1.0       0.5368054763003501  0.9509484763240528  0.43992196048677   1.0000   
         C         C         1.0       0.4954278474884299  0.9261125761910445  0.4238264200655325 1.0000   
         C         C         1.0       0.4576499148315099  0.881157972259928   0.4304263776058236 1.0000   
         C         C         1.0       0.5812302711072794  0.9592592344360741  0.48795694857129934          1.0000   
         C         C         1.0       0.4939211043052476  0.008950672376306423         0.5239987981273545 1.0000   
         C         C         1.0       0.48261493943578215           0.9651795067980649 0.5302723278361271 1.0000   
         C         C         1.0       0.5093630941570775  0.949661341005495   0.5206693445391211 1.0000   
         C         C         1.0       0.5521752558566585  0.9787859508278091  0.5028855602830171 1.0000   
         C         C         1.0       0.5646549935041616  0.022669128974631025         0.496740800255058  1.0000   
         C         C         1.0       0.5360419428079479  0.037062665279557816         0.5063191910323964 1.0000   
         C         C         1.0       0.635001742569328   0.9940467264371121  0.4765441214637905 1.0000   
         C         C         1.0       0.6492908967509705  0.9920989960539043  0.44778092032062805          1.0000   
         C         C         1.0       0.6895975709155021  0.03205009647927515           0.43409924460921756          1.0000   
         C         C         1.0       0.7181248902092301  0.07085425037883408           0.45086672730152383          1.0000   
         C         C         1.0       0.712132203744748   0.0669557015841713  0.48138093122493847          1.0000   
         C         C         1.0       0.6705703544679397  0.030441073994678547         0.493130986093441  1.0000   
         C         C         1.0       0.595915803733507   0.9425631848212036  0.5398190399292633 1.0000   
         C         C         1.0       0.5936512680781288  0.9126619493956433  0.5596670439613173 1.0000   
         C         C         1.0       0.5913958319331574  0.8739571575703257  0.5503701004787037 1.0000   
         C         C         1.0       0.5936509138666554  0.8667934302887017  0.519689251296316  1.0000   
         C         C         1.0       0.5961029779763488  0.8973554351907049  0.5006435860376472 1.0000   
         C         C         1.0       0.5947333903952066  0.9336241100153976  0.5096966707059902 1.0000   
         H         H         1.0       0.30381658167389763           0.7818648506816119 0.4217786182966899 1.0000   
         H         H         1.0       0.4120132679477471  0.8825751395381048  0.48374593070681254          1.0000   
         H         H         1.0       0.36523864926490046           0.8361116478997654 0.5206333037393998 1.0000   
         H         H         1.0       0.25055273226715846           0.7411473013429636 0.46569659124392027          1.0000   
         H         H         1.0       0.4417407686421464  0.953454642256209   0.4470671960697858 1.0000   
         H         H         1.0       0.39777758446550476           0.9935470510564618 0.4465328111920741 1.0000   
         H         H         1.0       0.29377109264085205           0.8944978295594582 0.38877578561656967          1.0000   
         H         H         1.0       0.32900143704116724           0.8552966921822613 0.38538810811077734          1.0000   
         H         H         1.0       0.4401126274312125  0.820429359872737   0.45374938641811197          1.0000   
         H         H         1.0       0.5038727203816877  0.8633275401499085  0.486072746944094  1.0000   
         H         H         1.0       0.5586969858296432  0.9886805979203954  0.4402248961373351 1.0000   
         H         H         1.0       0.4917288449573705  0.9507851173747693  0.41238460076801986          1.0000   
         H         H         1.0       0.44789444989844024           0.9431213851493111 0.5430611544099762 1.0000   
         H         H         1.0       0.4970573647563885  0.9132074729682226  0.5247685573634364 1.0000   
         H         H         1.0       0.5986585486965027  0.04839785227603044           0.4856980375561114 1.0000   
         H         H         1.0       0.546156572915036   0.06975015836180964           0.4973345567280443 1.0000   
         H         H         1.0       0.625673580444307   0.9650110019969238  0.4343033392488193 1.0000   
         H         H         1.0       0.6988322571827363  0.03227584956335572           0.41138099391369576          1.0000   
         H         H         1.0       0.741554710424235   0.0950313099985245  0.49362091671627867          1.0000   
         H         H         1.0       0.6636960110175125  0.02884067154308645           0.5157346373597916 1.0000   
         H         H         1.0       0.5986913018822524  0.9736806200607684  0.547572225888779  1.0000   
         H         H         1.0       0.588696595276708   0.9157351539255045  0.5819900226388751 1.0000   
         H         H         1.0       0.5982614269648666  0.8402295791885285  0.5100942366305891 1.0000   
         H         H         1.0       0.5905104484724255  0.8899372210409725  0.4767492422199377 1.0000   
         C         C         1.0       0.06650108941865795           0.8650535536531394 0.20501812867128522          1.0000   
         C         C         1.0       0.04902129849204839           0.8868341594829563 0.22099796064875257          1.0000   
         C         C         1.0       0.010016756023066398          0.8613858581896991 0.24173035104223303          1.0000   
         C         C         1.0       0.9952080176043039  0.8174412765960153  0.2511630273845719 1.0000   
         C         C         1.0       0.01819746834641478           0.7982794429442358 0.23687377917935337          1.0000   
         C         C         1.0       0.053711933900809194          0.823403995389188  0.21530308468328285          1.0000   
         H         H         1.0       0.0609672744904417  0.9215446470857676  0.2127623829827527 1.0000   
         H         H         1.0       0.9927215950456758  0.8792783316903094  0.24972615170053925          1.0000   
         H         H         1.0       0.00946316232954092           0.7646642786818905 0.24350484104199838          1.0000   
         H         H         1.0       0.07299112998338231           0.8082729343289993 0.2062069727052119 1.0000   
         C         C         1.0       0.9012867562318579  0.7256057200298114  0.2407539623438617 1.0000   
         C         C         1.0       0.9160008190181569  0.7406156033661674  0.2699539441015264 1.0000   
         C         C         1.0       0.8876875940626023  0.7123444423596941  0.291735425537739  1.0000   
         C         C         1.0       0.8505049896838777  0.6665004072379305  0.28504294349045717          1.0000   
         C         C         1.0       0.838354216984671   0.6504395680489777  0.25680420265964515          1.0000   
         C         C         1.0       0.8642132002528654  0.6809366894496468  0.23368795432179357          1.0000   
         C         C         1.0       0.9597917401694794  0.7931828763577784  0.27987569545862534          1.0000   
         C         C         1.0       0.9334833486532245  0.8169023421022068  0.29191928815669343          1.0000   
         C         C         1.0       0.9310138530399673  0.8262356860019212  0.3212934654591834 1.0000   
         C         C         1.0       0.9003201003259848  0.8384047328649468  0.33187753820850985          1.0000   
         C         C         1.0       0.8711405478321765  0.8408268280221559  0.31386779138482174          1.0000   
         C         C         1.0       0.872642941814306   0.8323538482904038  0.28473017770279974          1.0000   
         C         C         1.0       0.9030709826544399  0.820700271724757   0.2738186246695199 1.0000   
         C         C         1.0       0.9991147874615421  0.7610966660265348  0.311618298970034  1.0000   
         C         C         1.0       0.02798560374562875           0.7663521781549607 0.3332726781442942 1.0000   
         C         C         1.0       0.0607436308841407  0.8098708644392266  0.3474937565082539 1.0000   
         C         C         1.0       0.06862548405728841           0.8485574541883617 0.33352490467691065          1.0000   
         C         C         1.0       0.038330112123262206          0.8427268355303643 0.3124067557037909 1.0000   
         C         C         1.0       0.0006782848533659624         0.7993046156659307 0.3024489451485677 1.0000   
         C         C         1.0       0.08352184407508001           0.8186922890720997 0.38042571383434154          1.0000   
         C         C         1.0       0.977549459395246   0.8351527097836969  0.42783094346435013          1.0000   
         C         C         1.0       0.9633628534837217  0.7912515001332207  0.4196074914629712 1.0000   
         C         C         1.0       0.9974348251681535  0.7862971076620099  0.40532270618822636          1.0000   
         C         C         1.0       0.04413993787685966           0.8232566366278987 0.3982657803816491 1.0000   
         C         C         1.0       0.05929906499913584           0.8659920500820574 0.40938936016505206          1.0000   
         C         C         1.0       0.02603993388168724           0.8724119750852433 0.4232709218288487 1.0000   
         C         C         1.0       0.1406824561197655  0.8606972421560578  0.38390340338734247          1.0000   
         C         C         1.0       0.17439098002622488           0.8794340032070744 0.3605818927143985 1.0000   
         C         C         1.0       0.22353455350528328           0.9145649429693122 0.3667861693969133 1.0000   
         C         C         1.0       0.23791274113937044           0.9304557047952722 0.39407374880605067          1.0000   
         C         C         1.0       0.20519339695865724           0.9081660414091994 0.41748844817363534          1.0000   
         C         C         1.0       0.1567246031937246  0.8737156663007998  0.41171785563681357          1.0000   
         C         C         1.0       0.11246585170659484           0.766234475662271  0.37004758506555335          1.0000   
         C         C         1.0       0.11818462955581666           0.7322679441322275 0.37862276019890767          1.0000   
         C         C         1.0       0.09999786115775855           0.7093472985673895 0.405641197073733  1.0000   
         C         C         1.0       0.07573842143848153           0.7218345738671144 0.42390437568046085          1.0000   
         C         C         1.0       0.06981982086478022           0.7557256253940775 0.4163975180941447 1.0000   
         C         C         1.0       0.08649312920990337           0.7780358112545959 0.38932816070827825          1.0000   
         H         H         1.0       0.9253768607331094  0.7492548548035046  0.22179009155179163          1.0000   
         H         H         1.0       0.8914797372225884  0.723506693243129   0.3147522517189317 1.0000   
         H         H         1.0       0.8264945820863719  0.6398442624278882  0.3019603590432431 1.0000   
         H         H         1.0       0.8555105965503353  0.6711723964762767  0.21060473149623174          1.0000   
         H         H         1.0       0.94849660404912    0.8192269793737661  0.33864581415288014          1.0000   
         H         H         1.0       0.896373208672557   0.8430629674908944  0.3551444006504072 1.0000   
         H         H         1.0       0.847101927178607   0.8326977035828046  0.2699930454592394 1.0000   
         H         H         1.0       0.9022043616681937  0.8126074194036219  0.2503674044459563 1.0000   
         H         H         1.0       0.9715266383862188  0.7265850274715252  0.3023583560767628 1.0000   
         H         H         1.0       0.02635374971581461           0.7381082727473953 0.3409424474906464 1.0000   
         H         H         1.0       0.09720288472398542           0.8881191943443093 0.3397476746199441 1.0000   
         H         H         1.0       0.04343136249512436           0.8730353059667517 0.30330031825003406          1.0000   
         H         H         1.0       0.9262739186690299  0.7603638593425318  0.42460767107357966          1.0000   
         H         H         1.0       0.9870638837629062  0.7541095849460239  0.39548503605876056          1.0000   
         H         H         1.0       0.0954126255669403  0.8977760818016293  0.40478004274066665          1.0000   
         H         H         1.0       0.039815737416279307          0.9091310451569887 0.43131918750068476          1.0000   
         H         H         1.0       0.1654729187450641  0.8683305560702279  0.33782357029460963          1.0000   
         H         H         1.0       0.2500251253329413  0.9277359779498028  0.3476679104366725 1.0000   
         H         H         1.0       0.21588195682597133           0.9194770001150332 0.43917933656297325          1.0000   
         H         H         1.0       0.13013307687983522           0.8621625080182661 0.4289546120023036 1.0000   
         H         H         1.0       0.12961692762553256           0.7828163108579307 0.34981653586503303          1.0000   
         H         H         1.0       0.1426425986216564  0.7269852483662199  0.3651060186702148 1.0000   
         H         H         1.0       0.05981344880378581           0.7055652692552091 0.4444896420162124 1.0000   
         H         H         1.0       0.051430155119636556          0.7658716592792126 0.43176030187991266          1.0000   
         C         C         1.0       0.7126911872503431  0.9300564886400332  0.19535051068677478          1.0000   
         C         C         1.0       0.7480910008046268  0.9780025197956165  0.19368536100875133          1.0000   
         C         C         1.0       0.7523203857866334  0.0052210608933269675        0.21769173996862187          1.0000   
         C         C         1.0       0.7270600194040708  0.9877159814913626  0.2440977633453855 1.0000   
         C         C         1.0       0.6934632123070948  0.9389702687332602  0.24427148169755883          1.0000   
         C         C         1.0       0.6828646128576107  0.9106294703928813  0.2206864577850425 1.0000   
         H         H         1.0       0.7692558775384897  0.9961412833141955  0.17349831023070067          1.0000   
         H         H         1.0       0.7771469403491712  0.04231228409069465           0.21736413132526353          1.0000   
         H         H         1.0       0.6750548490088248  0.9210765000686005  0.26511673117842943          1.0000   
         H         H         1.0       0.655414518793595   0.8753096895856941  0.22187309465929694          1.0000   
         C         C         1.0       0.6546371919478067  0.00996934494169932           0.2727946622270628 1.0000   
         C         C         1.0       0.7054574427248952  0.03684703471312356           0.2663083675435132 1.0000   
         C         C         1.0       0.7236445671696522  0.07348311442790001           0.24607756765697414          1.0000   
         C         C         1.0       0.6944748223245771  0.08439199940362818           0.23723335330399778          1.0000   
         C         C         1.0       0.6458405895163697  0.06019645956674147           0.24619814632826093          1.0000   
         C         C         1.0       0.624852450836738   0.021248311639302075         0.2622335661380252 1.0000   
         C         C         1.0       0.7380006418715375  0.019883284763471343         0.27098415501851836          1.0000   
         C         C         1.0       0.7912270344597793  0.062288259868237716         0.27832394857690185          1.0000   
         C         C         1.0       0.7998570608633199  0.0954374518699781  0.300002946503749  1.0000   
         C         C         1.0       0.844075152456835   0.13287193490839877           0.3071812397991878 1.0000   
         C         C         1.0       0.8855966878739098  0.138478299429031   0.2929172786431507 1.0000   
         C         C         1.0       0.8792929061335047  0.107364172729562   0.27154900946522925          1.0000   
         C         C         1.0       0.833058760397739   0.06979024559374536           0.2640963319649695 1.0000   
         C         C         1.0       0.696132971136362   0.9830968466623394  0.3244605845147783 1.0000   
         C         C         1.0       0.6930020794614817  0.9613134023133425  0.34974240062055706          1.0000   
         C         C         1.0       0.7218672103689592  0.9447281152442731  0.3525547024171095 1.0000   
         C         C         1.0       0.7513486721359034  0.9493575364579147  0.32895325808276593          1.0000   
         C         C         1.0       0.7528128942762021  0.9694343653276819  0.30363316641485943          1.0000   
         C         C         1.0       0.7277885924478921  0.9898504272967135  0.3015765081408719 1.0000   
         C         C         1.0       0.7240205968174526  0.9225343442429552  0.38169157168754586          1.0000   
         C         C         1.0       0.857011722020185   0.04022575823474628           0.4239152744285326 1.0000   
         C         C         1.0       0.8613173036974386  0.015835770919014003         0.4022786344810676 1.0000   
         C         C         1.0       0.8195168152698196  0.9795323533859014  0.3881150683673142 1.0000   
         C         C         1.0       0.7731461003482129  0.9661663507828897  0.39653203319955327          1.0000   
         C         C         1.0       0.769948377624369   0.9943974207513996  0.41761741017092585          1.0000   
         C         C         1.0       0.8114519338925446  0.02936493087313119           0.43165972927600327          1.0000   
         C         C         1.0       0.7318113988214741  0.8813279490893786  0.3742800225345082 1.0000   
         C         C         1.0       0.7063207494019516  0.8477240494184342  0.35144575444687115          1.0000   
         C         C         1.0       0.7207083025286243  0.8213910550341894  0.3418694301076025 1.0000   
         C         C         1.0       0.7587178416856967  0.8250240183941845  0.35716022898620486          1.0000   
         C         C         1.0       0.778370980819919   0.8486106125768701  0.38305218970650773          1.0000   
         C         C         1.0       0.7601560176008487  0.8746536353390822  0.3925423255299611 1.0000   
         C         C         1.0       0.6306922330878093  0.8666018619572079  0.3879251709571168 1.0000   
         C         C         1.0       0.5901319720684531  0.8311862111048133  0.40330131023477894          1.0000   
         C         C         1.0       0.5914375819156938  0.8266157926569373  0.43264373701391345          1.0000   
         C         C         1.0       0.6332671056966217  0.8564403612563278  0.4468547421381579 1.0000   
         C         C         1.0       0.675715758685197   0.8877949728709509  0.4311767995933318 1.0000   
         C         C         1.0       0.675333452946406   0.8948774840166587  0.4012728448432129 1.0000   
         H         H         1.0       0.6385772837702779  0.978146382122131   0.28335072496951214          1.0000   
         H         H         1.0       0.7606723642227968  0.09198635237168884           0.23694686977489382          1.0000   
         H         H         1.0       0.7056517576428376  0.10801735840176496           0.2196882943419833 1.0000   
         H         H         1.0       0.5844948470280206  0.997836592351168   0.2622116644397195 1.0000   
         H         H         1.0       0.7679462340571905  0.08876846181823739           0.31441679787579985          1.0000   
         H         H         1.0       0.851614982119279   0.15905583852641092           0.32274829614320094          1.0000   
         H         H         1.0       0.9131447360389773  0.11289396568274856           0.26066734669801733          1.0000   
         H         H         1.0       0.8285310812598248  0.04275318963749819           0.24831454988129115          1.0000   
         H         H         1.0       0.6769458355676764  0.9996099339835427  0.32452703247742004          1.0000   
         H         H         1.0       0.6704627382303493  0.9580122923932923  0.3673918815148151 1.0000   
         H         H         1.0       0.7762000114983362  0.9390311447906762  0.32971843133006123          1.0000   
         H         H         1.0       0.7766632478238461  0.9732652719022298  0.28525599184671585          1.0000   
         H         H         1.0       0.898210920357222   0.028214161081849376         0.3947237080976304 1.0000   
         H         H         1.0       0.8248206596151629  0.9605569287559649  0.3709609701303599 1.0000   
         H         H         1.0       0.7333028129937597  0.9847764186243759  0.42416430956036083          1.0000   
         H         H         1.0       0.8050097445873463  0.04519839807800685           0.450119530221515  1.0000   
         H         H         1.0       0.6759689847336572  0.8431216535684581  0.340597858499757  1.0000   
         H         H         1.0       0.7038325639941254  0.7982065379917364  0.3221762357893506 1.0000   
         H         H         1.0       0.804313638156394   0.8446402968380411  0.3935641115683583 1.0000   
         H         H         1.0       0.7698349869809004  0.8900010641036317  0.4148385827324445 1.0000   
         H         H         1.0       0.6290007454058324  0.869000501908163   0.3651962083055564 1.0000   
         H         H         1.0       0.5574511365101047  0.8040779147852278  0.3912066937231753 1.0000   
         H         H         1.0       0.6380734732269813  0.8525479272854617  0.46973560880811255          1.0000   
         H         H         1.0       0.7094537594799419  0.9013513164035243  0.44186298004926877          1.0000   
         C         C         1.0       0.7201841306185391  0.8480543026779783  0.13810144328740595          1.0000   
         C         C         1.0       0.7633038857956329  0.8536727635614326  0.12865466521634117          1.0000   
         C         C         1.0       0.8944088203200223  0.8980776717330637  0.6209118828489334 1.0000   
         C         C         1.0       0.8522126399625399  0.8532161025326584  0.6197601874349303 1.0000   
         C         C         1.0       0.811112196544722   0.8432921671348746  0.6377280051193172 1.0000   
         C         C         1.0       0.6781331580347764  0.8178701299187766  0.1242171424237338 1.0000   
         H         H         1.0       0.7948639508881894  0.8765497336101918  0.14150453544551678          1.0000   
         H         H         1.0       0.9267226693595568  0.9040513907183818  0.6095679039374978 1.0000   
         H         H         1.0       0.778232381921554   0.805872815371227   0.6392317478168227 1.0000   
         H         H         1.0       0.6428951370609978  0.8097974896847224  0.13379574572084796          1.0000   
         C         C         1.0       0.828370345646425   0.7564514793266872  0.6416921380437443 1.0000   
         C         C         1.0       0.8216841877937067  0.7609446004919758  0.6121133499366077 1.0000   
         C         C         1.0       0.8010743483275513  0.719324828330006   0.5962696552763279 1.0000   
         C         C         1.0       0.7933447603921026  0.6796224594315504  0.607846046847864  1.0000   
         C         C         1.0       0.8039581196730401  0.6781271512667743  0.6359971227243516 1.0000   
         C         C         1.0       0.8190828660054277  0.716148604231586   0.6530399442413838 1.0000   
         C         C         1.0       0.8447554770895125  0.8104171823551921  0.5977705821987496 1.0000   
         C         C         1.0       0.8920500717205726  0.8177542126524058  0.5817184559246019 1.0000   
         C         C         1.0       0.8880519342842448  0.7939831092210551  0.5560680992165298 1.0000   
         C         C         1.0       0.9295173853686056  0.8002399659185697  0.5424002703639221 1.0000   
         C         C         1.0       0.9743694577668187  0.827499216056797   0.5553636987521549 1.0000   
         C         C         1.0       0.9794722226849046  0.849424606885989   0.5815934010904701 1.0000   
         C         C         1.0       0.9373793827600795  0.8432306085673059  0.5955688049667716 1.0000   
         C         C         1.0       0.764681941555484   0.7746170554416791  0.5646359802654438 1.0000   
         C         C         1.0       0.7445061905264247  0.7792696233264181  0.5398188136038026 1.0000   
         C         C         1.0       0.7675965429853933  0.8220855853198914  0.525481193388483  1.0000   
         C         C         1.0       0.8108457465778741  0.8593135392296677  0.5377944003623059 1.0000   
         C         C         1.0       0.8346505911950367  0.8514838494673745  0.5579598200579041 1.0000   
         C         C         1.0       0.8120719025895746  0.8116095478148048  0.5732395942088551 1.0000   
         C         C         1.0       0.7476711771337022  0.8333332540569712  0.4967605304760058 1.0000   
         C         C         1.0       0.8618103400105377  0.8400618087389258  0.4417527367333455 1.0000   
         C         C         1.0       0.8189036085589233  0.7982858750352385  0.4470202672846971 1.0000   
         C         C         1.0       0.782764046019162   0.7971048513681064  0.4622101720899664 1.0000   
         C         C         1.0       0.7889320862710472  0.8367964752053191  0.47361017725731414          1.0000   
         C         C         1.0       0.8329025426475981  0.8792758453358205  0.46857256354348253          1.0000   
         C         C         1.0       0.8699669263272818  0.8813020526153371  0.4527342349982676 1.0000   
         C         C         1.0       0.7443930438867723  0.8758547867669548  0.5069792682226111 1.0000   
         C         C         1.0       0.7252489164202965  0.8756328762547558  0.5339544329947309 1.0000   
         C         C         1.0       0.7215435694312267  0.9108161352212835  0.5432999726334458 1.0000   
         C         C         1.0       0.744585861409494   0.9509978109186187  0.5271331368156257 1.0000   
         C         C         1.0       0.7603969493410435  0.9498763299517996  0.49935590206917724          1.0000   
         C         C         1.0       0.7619406225275822  0.9143207222781669  0.48946692908575723          1.0000   
         C         C         1.0       0.6878264529643574  0.7952568198400838  0.4536457455966292 1.0000   
         C         C         1.0       0.6420229402844942  0.7700902421865545  0.44301814609624485          1.0000   
         C         C         1.0       0.5999858633555641  0.7490352734725993  0.4615743883996077 1.0000   
         C         C         1.0       0.608239413937463   0.7514746689453209  0.4909578125875649 1.0000   
         C         C         1.0       0.6536276633614798  0.7719860611870976  0.5019369866596578 1.0000   
         C         C         1.0       0.6944758190358994  0.796566684495183   0.4842120498883744 1.0000   
         H         H         1.0       0.6667196768320182  0.707184020401636   0.0807576542389552 1.0000   
         H         H         1.0       0.7958004392618288  0.719550355879206   0.5729488456689081 1.0000   
         H         H         1.0       0.7810833277634855  0.6508301182897709  0.5923054688467575 1.0000   
         H         H         1.0       0.5961759522958859  0.6285253624713493  0.05848037157097963          1.0000   
         H         H         1.0       0.8526963753141019  0.7720320476787851  0.5451221256446145 1.0000   
         H         H         1.0       0.932276909415654   0.7873364753092518  0.5211137370604376 1.0000   
         H         H         1.0       0.015040200922316282          0.8703359712657361 0.590616286288542  1.0000   
         H         H         1.0       0.9470819855705022  0.8577618307488063  0.6170445144809705 1.0000   
         H         H         1.0       0.7418780042950303  0.7405385183549114  0.5758183032410991 1.0000   
         H         H         1.0       0.709909187927065   0.7498481931724895  0.5314676075620965 1.0000   
         H         H         1.0       0.8304320723737425  0.8943468348755483  0.528682144862769  1.0000   
         H         H         1.0       0.8708751674765256  0.880937785773552   0.5634987693213994 1.0000   
         H         H         1.0       0.8140646555726502  0.7650939591811117  0.44094610226476605          1.0000   
         H         H         1.0       0.7481974719354828  0.7648236113582162  0.46727000140887226          1.0000   
         H         H         1.0       0.8356307582371211  0.907216129172517   0.4810126653827646 1.0000   
         H         H         1.0       0.9029841657529463  0.9134926717878193  0.4478841831123036 1.0000   
         H         H         1.0       0.7091412830704716  0.8455978570930945  0.5475335151199487 1.0000   
         H         H         1.0       0.7055512716745226  0.9109590529623     0.5637062792531633 1.0000   
         H         H         1.0       0.7770605417217155  0.9832733968220475  0.48849878568977156          1.0000   
         H         H         1.0       0.777072654902267   0.9161445989683258  0.46750378402541237          1.0000   
         H         H         1.0       0.7192932096518706  0.8127406978574069  0.4383091373144354 1.0000   
         H         H         1.0       0.6396085879467778  0.7724415254300057  0.42097253009565977          1.0000   
         H         H         1.0       0.5815171422770037  0.7409505338782328  0.5078585350540477 1.0000   
         H         H         1.0       0.6578358580797753  0.7765583065940936  0.525887915014538  1.0000   
         C         C         1.0       0.5579988789770087  0.6258847675314732  0.5654055863449723 1.0000   
         C         C         1.0       0.5240562114308721  0.5784800197686151  0.561836934377594  1.0000   
         C         C         1.0       0.523974559713261   0.5477757172316808  0.5804855496049749 1.0000   
         C         C         1.0       0.5610910857598564  0.5658795806680988  0.6013068394697174 1.0000   
         C         C         1.0       0.5963418561456607  0.613867438210726   0.6025468840216087 1.0000   
         C         C         1.0       0.5931994840119815  0.6430689531061137  0.5859217182419905 1.0000   
         H         H         1.0       0.4945524604455334  0.562907982318796   0.5478483051364036 1.0000   
         H         H         1.0       0.49225401172905003           0.5118113597920544 0.5808071911077675 1.0000   
         H         H         1.0       0.6234248910268586  0.6276740958925117  0.6188588402214832 1.0000   
         H         H         1.0       0.6214376580790006  0.6789613473615338  0.5898477873935357 1.0000   
         C         C         1.0       0.6429902239259857  0.5556780171432742  0.6182979341291484 1.0000   
         C         C         1.0       0.6076194654430237  0.5465952271584844  0.63812369581099   1.0000   
         C         C         1.0       0.6201777889891514  0.5498343951657942  0.6671238032217038 1.0000   
         C         C         1.0       0.501040699746132   0.5499103928142628  0.0554533195763145 1.0000   
         C         C         1.0       0.7025511811467602  0.5805800896890937  0.6544021733144704 1.0000   
         C         C         1.0       0.68811536897602    0.5693184211425282  0.6256848590082301 1.0000   
         C         C         1.0       0.5556402729092726  0.5331592784953911  0.6282616288687447 1.0000   
         C         C         1.0       0.532742983307603   0.4794643298662005  0.6201481950075755 1.0000   
         C         C         1.0       0.39071860528080804           0.43263881071875304          0.11990892831511181          1.0000   
         C         C         1.0       0.38099727569008035           0.3883749301242634 0.12027706156413845          1.0000   
         C         C         1.0       0.5026141275289967  0.3859442761169362  0.6106085050164864 1.0000   
         C         C         1.0       0.5215750811579211  0.4187538826438341  0.5884106532530574 1.0000   
         C         C         1.0       0.5342995710775696  0.46346593331594976           0.5920760958533375 1.0000   
         C         C         1.0       0.43455285716748865           0.5645563289676695 0.1371114506165454 1.0000   
         C         C         1.0       0.4450710820436865  0.5815481789485162  0.1658325019068941 1.0000   
         C         C         1.0       0.4148676770327916  0.5567651795825297  0.18941714833510298          1.0000   
         C         C         1.0       0.3713414111383607  0.514612022530922   0.18213399818770712          1.0000   
         C         C         1.0       0.36140137685250406           0.49484870582406987          0.15568841555917223          1.0000   
         C         C         1.0       0.5232105874978317  0.5396803207442031  0.6517217610431749 1.0000   
         C         C         1.0       0.42504952440445276           0.5766402113308469 0.22331297767575625          1.0000   
         C         C         1.0       0.43873566777200274           0.4653854720591451 0.24942223667830948          1.0000   
         C         C         1.0       0.47607799345735624           0.5027586002843601 0.23323229897704553          1.0000   
         C         C         1.0       0.47231851267970393           0.539371041172208  0.22641526963508335          1.0000   
         C         C         1.0       0.4325735333565548  0.5394992433775081  0.2350795248335562 1.0000   
         C         C         1.0       0.39485235029627186           0.49970771505700284          0.24989061138528612          1.0000   
         C         C         1.0       0.39681895221869123           0.4622454691624027 0.25648450684823476          1.0000   
         C         C         1.0       0.37975661073696876           0.5790585467303185 0.23504536097198617          1.0000   
         C         C         1.0       0.357219230452519   0.5939804850607405  0.21805174229623742          1.0000   
         C         C         1.0       0.31988023712849806           0.597041595069797  0.23059155094912434          1.0000   
         C         C         1.0       0.3121497697480198  0.5937401393051263  0.2595552605350532 1.0000   
         C         C         1.0       0.33832156231007016           0.5829040286181207 0.27704761854477933          1.0000   
         C         C         1.0       0.3700498136803017  0.5746079339251015  0.26458311003542007          1.0000   
         C         C         1.0       0.4942954990295045  0.6401115023182342  0.2561922798270002 1.0000   
         C         C         1.0       0.531145262396291   0.6837007942817055  0.2624944520304524 1.0000   
         C         C         1.0       0.5390763260886615  0.7210778734955307  0.2463654421007563 1.0000   
         C         C         1.0       0.5168098765155668  0.7133051658388407  0.2197807848413484 1.0000   
         C         C         1.0       0.4814100839500684  0.6665027615009352  0.21281844253448134          1.0000   
         C         C         1.0       0.46837368995213996           0.6295358470828568 0.2309009864349195 1.0000   
         H         H         1.0       0.6355581795163755  0.5546603819790104  0.5947544919385639 1.0000   
         H         H         1.0       0.47391891912140005           0.5173726390159742 0.09538861987374593          1.0000   
         H         H         1.0       0.5366237502392203  0.5547015364418088  0.05917145366255783          1.0000   
         H         H         1.0       0.7179943290429502  0.5762421512408261  0.6090412768241076 1.0000   
         H         H         1.0       0.41601287662403763           0.4562280874127688 0.13585681479523426          1.0000   
         H         H         1.0       0.39242236763068894           0.3785773354878095 0.13907665942634154          1.0000   
         H         H         1.0       0.5303344733765344  0.40942665852442045           0.5684250384855036 1.0000   
         H         H         1.0       0.5530556463928521  0.48643228939813377           0.5744539253518446 1.0000   
         H         H         1.0       0.4651012377459722  0.5875788050818113  0.12193316950502377          1.0000   
         H         H         1.0       0.477362669610615   0.6164609747388693  0.1666313262738878 1.0000   
         H         H         1.0       0.3424118082612198  0.49636390240675826           0.1991063502885813 1.0000   
         H         H         1.0       0.4568888811724375  0.49210218913686576           0.6282814088397468 1.0000   
         H         H         1.0       0.5089301936061584  0.5042607080228149  0.2267924904428514 1.0000   
         H         H         1.0       0.4996101301397849  0.5641691799551772  0.2114891222594851 1.0000   
         H         H         1.0       0.360691971427127   0.49359251404111704           0.253956696012822  1.0000   
         H         H         1.0       0.3627862672628274  0.4330701436479452  0.2689184342198081 1.0000   
         H         H         1.0       0.36505100221969833           0.5984412178395003 0.19362708116757352          1.0000   
         H         H         1.0       0.30497552872691674           0.6107291302338569 0.21833667692769101          1.0000   
         H         H         1.0       0.3375901563879902  0.5864560002528548  0.30151014752000244          1.0000   
         H         H         1.0       0.3863880351149312  0.562952960195062   0.27851189075440813          1.0000   
         H         H         1.0       0.48519992896333547           0.6111065293079796 0.270709074185405  1.0000   
         H         H         1.0       0.5501869818746491  0.6913190119760989  0.2822036164201552 1.0000   
         H         H         1.0       0.5176206749368478  0.7410278650751997  0.2081616536140785 1.0000   
         H         H         1.0       0.4655962721884365  0.660611082732839   0.19210935971431145          1.0000   
         C         C         1.0       0.027247568018477608          0.4259036570410627 0.13924506004216142          1.0000   
         C         C         1.0       0.05644071695029296           0.4741026540279031 0.14095501786418238          1.0000   
         C         C         1.0       0.0630935273254618  0.4942477561591515  0.16770042207878158          1.0000   
         C         C         1.0       0.04003160396459515           0.47012223994363134          0.1933771995361641 1.0000   
         C         C         1.0       0.006414474477772769          0.421238114647526  0.19024659529639126          1.0000   
         C         C         1.0       0.001267012539843737          0.40111052708604655          0.1636115924428947 1.0000   
         H         H         1.0       0.0722814931687139  0.4965151065130991  0.12141395838290925          1.0000   
         H         H         1.0       0.08237572185026942           0.5328031150549862 0.16959505139942813          1.0000   
         H         H         1.0       0.9833341308291124  0.39977181251086585           0.20899303219910187          1.0000   
         H         H         1.0       0.9737547374977118  0.36570034409938795           0.16294684129760492          1.0000   
         C         C         1.0       0.9659702449166182  0.4848111176571814  0.2180028241293935 1.0000   
         C         C         1.0       0.0170285876565337  0.517617414360058   0.21829345911894119          1.0000   
         C         C         1.0       0.03514345841275235           0.5651181547580719 0.21978793055425336          1.0000   
         C         C         1.0       0.0032592116477967448         0.576537440717338  0.22895731558433416          1.0000   
         C         C         1.0       0.9520628229154411  0.5419510366827138  0.2321969357280497 1.0000   
         C         C         1.0       0.9337643615539724  0.496938184295796   0.2247350981998106 1.0000   
         C         C         1.0       0.04934335209020957           0.4987756690618013 0.22393553397216612          1.0000   
         C         C         1.0       0.10511030939600263           0.5343448884897064 0.23223495378975167          1.0000   
         C         C         1.0       0.13906028192742403           0.5268049279356387 0.2231480571656668 1.0000   
         C         C         1.0       0.18769567162265674           0.5578362317612197 0.23276272339653864          1.0000   
         C         C         1.0       0.2007400340512022  0.5917215629082601  0.2552780254756559 1.0000   
         C         C         1.0       0.1642800132259928  0.5962573181184321  0.2649510635696304 1.0000   
         C         C         1.0       0.11678205869627534           0.5662331401024272 0.25471425245201174          1.0000   
         C         C         1.0       0.01004679027777522           0.4746897123622296 0.2776810907393892 1.0000   
         C         C         1.0       0.9953658034032723  0.4495860023739808  0.3027148316184059 1.0000   
         C         C         1.0       0.00408422643156614           0.41589083259620513          0.3049435373407263 1.0000   
         C         C         1.0       0.02832405542276728           0.40967121198514733          0.28299060182436814          1.0000   
         C         C         1.0       0.038721161835201245          0.4325447357040638 0.25624818259027093          1.0000   
         C         C         1.0       0.028546708561163925          0.4648171735290546 0.25294802136881855          1.0000   
         C         C         1.0       0.9932460156850611  0.3892656184418171  0.33578782452671746          1.0000   
         C         C         1.0       0.13989392936662393           0.47939442855199926          0.3650818864876538 1.0000   
         C         C         1.0       0.10784964449680179           0.493150008471585  0.37056337178837173          1.0000   
         C         C         1.0       0.05980421825439497           0.46385023638239337          0.3607635915574904 1.0000   
         C         C         1.0       0.04548859905691138           0.42194152261717466          0.3489436185013344 1.0000   
         C         C         1.0       0.0788442555584068  0.41025000827447916           0.34435037094083404          1.0000   
         C         C         1.0       0.12666257137320525           0.4399613091476194 0.3515353784387349 1.0000   
         C         C         1.0       0.972405339982009   0.3355101075889611  0.33446010582057556          1.0000   
         C         C         1.0       0.957616053730992   0.3074601764471497  0.30867868093756756          1.0000   
         C         C         1.0       0.9497261803703068  0.2642262273707992  0.30778000434073477          1.0000   
         C         C         1.0       0.9513241533754427  0.2447923320490339  0.3331353197553355 1.0000   
         C         C         1.0       0.9603012131834402  0.26958433136371107           0.35836944222865214          1.0000   
         C         C         1.0       0.9698956337224042  0.3138721172534714  0.35945059521155165          1.0000   
         C         C         1.0       0.9490518004935935  0.39223915142896854           0.385397963857916  1.0000   
         C         C         1.0       0.9124971864310081  0.39225123016058067           0.39936260869449763          1.0000   
         C         C         1.0       0.8680943216013544  0.3741394475986009  0.38608221786728636          1.0000   
         C         C         1.0       0.8653221925115926  0.3650886342167483  0.35668189551727675          1.0000   
         C         C         1.0       0.9030520425805273  0.36688201261681974           0.34167826884637914          1.0000   
         C         C         1.0       0.94731754932462    0.38486280693374036           0.3550334161860616 1.0000   
         H         H         1.0       0.9448051986286704  0.44663712173514414           0.21443987490671856          1.0000   
         H         H         1.0       0.07328849315199526           0.5929726841777759 0.21756744190083954          1.0000   
         H         H         1.0       0.016828381628019917          0.6118566154150469 0.23236726483071446          1.0000   
         H         H         1.0       0.8959743502748239  0.47063786260632773           0.22502275605112287          1.0000   
         H         H         1.0       0.12963914572279234           0.4995302483097166 0.20784928826978102          1.0000   
         H         H         1.0       0.21189299150295696           0.546960883495148  0.22782913671275323          1.0000   
         H         H         1.0       0.17352332043841906           0.6241405663470525 0.27897923529832425          1.0000   
         H         H         1.0       0.08748288551489303           0.5680648693432578 0.2657648719453462 1.0000   
         H         H         1.0       0.007064438429389197          0.5033509628100686 0.27747698409880744          1.0000   
         H         H         1.0       0.9809480623412498  0.4595695638310196  0.31974440585258473          1.0000   
         H         H         1.0       0.03864284834660037           0.38618590340661857          0.28295718083358806          1.0000   
         H         H         1.0       0.05333311268508556           0.42477098243448935          0.23844870214798172          1.0000   
         H         H         1.0       0.11996765512863372           0.5246741844387891 0.3825422396818701 1.0000   
         H         H         1.0       0.03355120875989259           0.47352053805523475          0.3639050041954703 1.0000   
         H         H         1.0       0.06588047558216248           0.37605144940136415          0.3365532965441883 1.0000   
         H         H         1.0       0.14819435503538453           0.42627375048910665          0.34783319482667424          1.0000   
         H         H         1.0       0.9490910582085438  0.32006457865883275           0.28919164653477697          1.0000   
         H         H         1.0       0.9396844798913541  0.2452666659813452  0.2867104208256364 1.0000   
         H         H         1.0       0.9556314605449997  0.25665268026087745           0.3801740874297845 1.0000   
         H         H         1.0       0.9835734874383528  0.33080160268949843           0.3800902123568131 1.0000   
         H         H         1.0       0.9789758601687982  0.4018652257294081  0.3994267887791781 1.0000   
         H         H         1.0       0.9162816227957323  0.39640419578391217           0.4242347828315599 1.0000   
         H         H         1.0       0.8300186233257028  0.35045297489910887           0.34776003642080167          1.0000   
         H         H         1.0       0.8976679637303632  0.3557823928863525  0.3198459215481129 1.0000   
         C         C         1.0       0.6894356064647542  0.3286523202036877  0.45181054725353753          1.0000   
         C         C         1.0       0.7287587280087761  0.3354920763587416  0.4642448994245044 1.0000   
         C         C         1.0       0.7232623094530942  0.3068699555502792  0.4865514548844399 1.0000   
         C         C         1.0       0.6775227582070007  0.26787677061477    0.49460325571077074          1.0000   
         C         C         1.0       0.6392686899163371  0.25678972416485807           0.4759549783723584 1.0000   
         C         C         1.0       0.6448005482208248  0.2864531614820299  0.45455979119090123          1.0000   
         H         H         1.0       0.7649423075714716  0.36435285236061143           0.45671048451447527          1.0000   
         H         H         1.0       0.756085950819725   0.3131267366099377  0.495610492203698  1.0000   
         H         H         1.0       0.6047848701417233  0.22442749645900273           0.47810196382517023          1.0000   
         H         H         1.0       0.6132731768445198  0.2761907819942961  0.4413703139579862 1.0000   
         C         C         1.0       0.7275760061900145  0.3018456540233577  0.5540429386761807 1.0000   
         C         C         1.0       0.7024787883623477  0.25479001391444145           0.5459141867267373 1.0000   
         C         C         1.0       0.7031041944706585  0.22553964862047146           0.5645878466913276 1.0000   
         C         C         1.0       0.7218543955081417  0.23965311142673448           0.5915921188697196 1.0000   
         C         C         1.0       0.7478138301581903  0.286498023452409   0.599063167736289  1.0000   
         C         C         1.0       0.7494103878956172  0.3174936905363772  0.581945387206036  1.0000   
         C         C         1.0       0.6675310547497233  0.2320311011292438  0.5184158355848458 1.0000   
         C         C         1.0       0.6785266757176018  0.20061341533709268           0.497985179702892  1.0000   
         C         C         1.0       0.6453213469395542  0.16520284929068146           0.479202204047197  1.0000   
         C         C         1.0       0.6587569622579371  0.14428734556852502           0.45830270511776566          1.0000   
         C         C         1.0       0.7081066054518526  0.15772752226296988           0.45700551713473014          1.0000   
         C         C         1.0       0.7420220616243869  0.19134526804380786           0.47561740542503933          1.0000   
         C         C         1.0       0.7268749167831675  0.21451224854084064           0.4937490828137751 1.0000   
         C         C         1.0       0.5897579035110303  0.16204162437761307           0.544005479084357  1.0000   
         C         C         1.0       0.5564435636180973  0.15036330481954974           0.5669910700044294 1.0000   
         C         C         1.0       0.5376561195639343  0.1781198623230896  0.5735688531388003 1.0000   
         C         C         1.0       0.5581761783609993  0.21847175408907904           0.5588113039080685 1.0000   
         C         C         1.0       0.5982522247119301  0.23366161112401546           0.5413683079763856 1.0000   
         C         C         1.0       0.61394645052102    0.20522468425696855           0.5334426879707413 1.0000   
         C         C         1.0       0.509015437051876   0.1707290117660775  0.6048709784518569 1.0000   
         C         C         1.0       0.25580216722167726           0.010135470606028152         0.05329058626010941          1.0000   
         C         C         1.0       0.2542630485449705  0.04526713176293273           0.06547324350605921          1.0000   
         C         C         1.0       0.29704224779794414           0.08817240024798823          0.07051959743020086          1.0000   
         C         C         1.0       0.46232425597042714           0.11916813797257975          0.6095966306441184 1.0000   
         C         C         1.0       0.4341428414806639  0.09398412944988155           0.584889646297092  1.0000   
         C         C         1.0       0.38988237433468237           0.04952593376381031          0.5878616626466775 1.0000   
         C         C         1.0       0.48449721348131397           0.1988655820493369 0.6097285679862513 1.0000   
         C         C         1.0       0.40496533914317157           0.22125417501369987          0.09057987930172473          1.0000   
         C         C         1.0       0.3969906897197955  0.255825406835736   0.09362999457481512          1.0000   
         C         C         1.0       0.37281402158769983           0.26061575717597657          0.07150638363422201          1.0000   
         C         C         1.0       0.4419179898244771  0.23260657481146313           0.5925270733890768 1.0000   
         C         C         1.0       0.4580433888516675  0.20362855777106115           0.5886490146435038 1.0000   
         C         C         1.0       0.5910208952312066  0.242914810496639   0.6279484457940308 1.0000   
         C         C         1.0       0.4641358054140129  0.11821895317128094           0.1115332800922348 1.0000   
         C         C         1.0       0.4452900552397002  0.11167543822910808           0.13928566943125154          1.0000   
         C         C         1.0       0.4047794261892399  0.11594326880983297           0.14350805765135752          1.0000   
         C         C         1.0       0.3862694194095521  0.1254345112455376  0.1209154147301839 1.0000   
         C         C         1.0       0.5562572868667616  0.19456734564506029           0.6263869566740503 1.0000   
         H         H         1.0       0.7238995301995317  0.3254161066454376  0.540727200316121  1.0000   
         H         H         1.0       0.6827416191561242  0.18587924579226808           0.560404241018762  1.0000   
         H         H         1.0       0.721217482695732   0.21457883762813432           0.6044323578086565 1.0000   
         H         H         1.0       0.7681236491764558  0.35321195637778413           0.5904176710795026 1.0000   
         H         H         1.0       0.6070243406748262  0.15812810424758747           0.47827190904578964          1.0000   
         H         H         1.0       0.6385552866212035  0.1229158192301647  0.44074543800311905          1.0000   
         H         H         1.0       0.7812065531022094  0.20387304429321412           0.4731421311284227 1.0000   
         H         H         1.0       0.7578652589426866  0.24281334721916678           0.5053158024146337 1.0000   
         H         H         1.0       0.5993612061031717  0.137330360661385   0.5412510897144318 1.0000   
         H         H         1.0       0.5437228248412362  0.11936232111222544           0.5779369494048294 1.0000   
         H         H         1.0       0.5468645873911858  0.24115776230003863           0.5647566983404437 1.0000   
         H         H         1.0       0.6178675051105122  0.2681441421773421  0.5301823038651489 1.0000   
         H         H         1.0       0.2204748071066957  0.0362311976195131  0.07491303516094172          1.0000   
         H         H         1.0       0.29521798858996956           0.11398034769558585          0.0820005302315292 1.0000   
         H         H         1.0       0.44769693088560825           0.11077053108541723          0.5635978965709058 1.0000   
         H         H         1.0       0.3684595691556805  0.028925128104732245         0.5671717438586772 1.0000   
         H         H         1.0       0.4281586391836488  0.2194941128176998  0.10630614513361758          1.0000   
         H         H         1.0       0.41083123788450526           0.2789196049997141 0.1139420613015655 1.0000   
         H         H         1.0       0.4244344170733921  0.23816087966173247           0.575070641582639  1.0000   
         H         H         1.0       0.45966567318955526           0.19199499619828364          0.5670907523997059 1.0000   
         H         H         1.0       0.5866726148425718  0.2649736389476102  0.6138096078594548 1.0000   
         H         H         1.0       0.49742159046285717           0.11996249223050004          0.10673987605134073          1.0000   
         H         H         1.0       0.38614453354217215           0.1082228895544699 0.16520847110110626          1.0000   
         H         H         1.0       0.3599005779889072  0.1338599348529987  0.1246122871311877 1.0000   
         C         C         1.0       0.04817477170424134           0.25287554140436713          0.610997897833111  1.0000   
         C         C         1.0       0.028792460396414254          0.2302147685691281 0.5857867920548667 1.0000   
         C         C         1.0       0.9825652702237198  0.21751342689594622           0.579451000542111  1.0000   
         C         C         1.0       0.954266005875472   0.2255873049428241  0.5993771780442757 1.0000   
         C         C         1.0       0.9717267393606167  0.24036217111180483           0.6266344498585704 1.0000   
         C         C         1.0       0.01980942849776368           0.25724860361116275          0.6311069426730336 1.0000   
         H         H         1.0       0.04793655234059058           0.22313709540755367          0.5701623960136926 1.0000   
         H         H         1.0       0.9708019419232997  0.20442096591962022           0.5588695198620107 1.0000   
         H         H         1.0       0.9533441259415042  0.24728959233940906           0.6439472189630662 1.0000   
         H         H         1.0       0.038693598972174836          0.2813980719308689 0.6497842894219688 1.0000   
         C         C         1.0       0.9137631785785358  0.2874772172967095  0.6123941592936786 1.0000   
         C         C         1.0       0.8837389102523325  0.24124313804533715           0.6060373954769788 1.0000   
         C         C         1.0       0.8353808210979207  0.2180035314728441  0.6131754744877974 1.0000   
         C         C         1.0       0.8170895277470538  0.24314726998926117           0.6230355366879036 1.0000   
         C         C         1.0       0.8469148992419738  0.29197408760594407           0.626524879646463  1.0000   
         C         C         1.0       0.8980528690204258  0.31422979884313174           0.6218938242219516 1.0000   
         C         C         1.0       0.9051437456452236  0.2159088341374197  0.5865174484218977 1.0000   
         C         C         1.0       0.869002423886504   0.15767076809859334           0.5846347152028272 1.0000   
         C         C         1.0       0.8679368590711452  0.13627662563304535           0.5588100469893772 1.0000   
         C         C         1.0       0.8398172676877576  0.08900444544458219           0.5558567661080684 1.0000   
         C         C         1.0       0.8077695732079285  0.06185763611611427           0.5780152656603122 1.0000   
         C         C         1.0       0.8068027624818079  0.08056824771305848           0.6039248311363863 1.0000   
         C         C         1.0       0.8417958370629236  0.1285419303595323  0.6088388845065019 1.0000   
         C         C         1.0       0.8686170559350309  0.22111069008891787           0.5384111667099657 1.0000   
         C         C         1.0       0.8744021077428081  0.23617077845104936           0.5104004879812785 1.0000   
         C         C         1.0       0.9213164461604737  0.2707143808815513  0.49779366935446456          1.0000   
         C         C         1.0       0.9609896377354811  0.29046826810361803           0.5166688394379685 1.0000   
         C         C         1.0       0.955203646162455   0.27623629686103407           0.5450628385719317 1.0000   
         C         C         1.0       0.9089230040127889  0.23959845281410458           0.5567076685153483 1.0000   
         C         C         1.0       0.9311668495315826  0.2817821424631219  0.4631555671473881 1.0000   
         C         C         1.0       0.937674558869983   0.1657300515642092  0.43566218502187865          1.0000   
         C         C         1.0       0.8942923078191551  0.16119948992956284           0.4350156288575766 1.0000   
         C         C         1.0       0.8914241089976075  0.19638099406326945           0.44588128376147007          1.0000   
         C         C         1.0       0.9336339368936465  0.23837177545365648           0.45398722809267594          1.0000   
         C         C         1.0       0.9770571675369724  0.24102369023990122           0.457555003615652  1.0000   
         C         C         1.0       0.9782285893486057  0.20407785755976596           0.4483297955640929 1.0000   
         C         C         1.0       0.9798308961760817  0.33152473266879257           0.45420589514163695          1.0000   
         C         C         1.0       0.9959439086922668  0.36979085905896264           0.4722725016710635 1.0000   
         C         C         1.0       0.0439434440619495  0.408666125405648   0.47061120356864844          1.0000   
         C         C         1.0       0.07459802652861791           0.4127217920348123 0.44938227419168303          1.0000   
         C         C         1.0       0.05640389861685269           0.3764898615449282 0.42779996264032594          1.0000   
         C         C         1.0       0.012009815793918133          0.33655391897767234          0.43202471036101314          1.0000   
         C         C         1.0       0.8642905042372053  0.29786791382565425           0.4649672507388432 1.0000   
         C         C         1.0       0.8310859625417383  0.30415559556807725           0.4534559024016674 1.0000   
         C         C         1.0       0.817571624748062   0.2913145759085487  0.42527768125464915          1.0000   
         C         C         1.0       0.836216376257678   0.2695172026699815  0.4090627829528859 1.0000   
         C         C         1.0       0.873301578029429   0.2689107453368177  0.42025132808878396          1.0000   
         C         C         1.0       0.8887594436971373  0.28149891044458036           0.448614204189447  1.0000   
         H         H         1.0       0.9524504770006768  0.30777253435190804           0.6092867438158543 1.0000   
         H         H         1.0       0.8110292496840602  0.18230276646864363           0.6089291679405275 1.0000   
         H         H         1.0       0.7786034227624611  0.22318243882221173           0.6291962740342844 1.0000   
         H         H         1.0       0.928671039596808   0.35323870233113003           0.6252472170300116 1.0000   
         H         H         1.0       0.8896613691689297  0.1551378415518805  0.5386447467938029 1.0000   
         H         H         1.0       0.8447811339410405  0.0743447604713563  0.5356711886122137 1.0000   
         H         H         1.0       0.7845703466258386  0.05905491837785015           0.6215706384490312 1.0000   
         H         H         1.0       0.8402555955969853  0.1470785939183452  0.6275536996888723 1.0000   
         H         H         1.0       0.834645550205955   0.19466094834823486           0.5480108138588363 1.0000   
         H         H         1.0       0.8441699002193164  0.22116555490254522           0.4960332846129381 1.0000   
         H         H         1.0       0.9967857053192805  0.31517887757082313           0.50781807697541   1.0000   
         H         H         1.0       0.9907547091963346  0.29164866318658283           0.556289481477479  1.0000   
         H         H         1.0       0.8618361490499001  0.1301158228657243  0.4248388257633941 1.0000   
         H         H         1.0       0.8575567613679835  0.19200323121318819           0.4395979518404599 1.0000   
         H         H         1.0       0.011210992670256825          0.26755526020659376          0.4664598580913351 1.0000   
         H         H         1.0       0.01022307371802711           0.2047216766648527 0.451360281973244  1.0000   
         H         H         1.0       0.9766735187331383  0.36740107164142016           0.49165861722488124          1.0000   
         H         H         1.0       0.05663624020024094           0.4366786363618043 0.4849671069986803 1.0000   
         H         H         1.0       0.08137576992679163           0.38366444777099806          0.4097694744251325 1.0000   
         H         H         1.0       0.0034669994276981253         0.30927300123652884          0.4158498085643257 1.0000   
         H         H         1.0       0.8700222055845825  0.30413276362041164           0.4899329043170363 1.0000   
         H         H         1.0       0.8149208957352672  0.3168171825581561  0.4672188141964132 1.0000   
         H         H         1.0       0.8251240799892808  0.2581823428672219  0.38703281063199796          1.0000   
         H         H         1.0       0.8892807405167044  0.2562143621857313  0.40544675594710605          1.0000   
         C         C         1.0       0.36093509376915905           0.8128831255957952 0.27714199820000934          1.0000   
         C         C         1.0       0.3213630335922541  0.8147437819631256  0.27898513065779584          1.0000   
         C         C         1.0       0.3254608078831161  0.8527488953998648  0.2665086947151094 1.0000   
         C         C         1.0       0.37009049724378673           0.8896765664433424 0.25527502709238603          1.0000   
         C         C         1.0       0.4087224402138722  0.8846377965387376  0.2528593093745201 1.0000   
         C         C         1.0       0.4032937761284037  0.8463414531060367  0.2635951666341709 1.0000   
         H         H         1.0       0.2825625334127822  0.7859843247184022  0.2864976295598807 1.0000   
         H         H         1.0       0.2959241742706518  0.8588057508254456  0.26748948049491633          1.0000   
         H         H         1.0       0.44179391391243444           0.9105532983774434 0.2421313992497411 1.0000   
         H         H         1.0       0.43112474644759397           0.8404620356610152 0.2604508694241233 1.0000   
         C         C         1.0       0.458209921697406   0.98855493725994    0.2724409396508381 1.0000   
         C         C         1.0       0.4347712046796739  0.9812426288505827  0.24608503155195682          1.0000   
         C         C         1.0       0.45968738371087425           0.013765815375281765         0.22459403123190685          1.0000   
         C         C         1.0       0.5096575936437681  0.051887356345488245         0.22837388887520926          1.0000   
         C         C         1.0       0.5340092327966505  0.052886963416609145         0.25155808390371076          1.0000   
         C         C         1.0       0.5062289096646636  0.02272599368238515           0.2750727401537207 1.0000   
         C         C         1.0       0.3792031210024135  0.9369287973874408  0.2418302910339071 1.0000   
         C         C         1.0       0.353996521790495   0.9593083883803458  0.25813038835747326          1.0000   
         C         C         1.0       0.3536260877473442  0.992762691694936   0.24249112506791753          1.0000   
         C         C         1.0       0.33199821536875335           0.012661170228509544         0.25515775027940824          1.0000   
         C         C         1.0       0.3200187501680042  0.008782947270158603         0.2852203192195814 1.0000   
         C         C         1.0       0.32794524631240773           0.9810678784468342 0.3014763354140949 1.0000   
         C         C         1.0       0.3407303857119458  0.9538121242156902  0.2876543203618862 1.0000   
         C         C         1.0       0.39727310937830346           0.9242726183351273 0.18908330020743158          1.0000   
         C         C         1.0       0.3846054865719814  0.9121407740624504  0.16050261880694652          1.0000   
         C         C         1.0       0.33772486313997846           0.8956102256094581 0.15169101818961406          1.0000   
         C         C         1.0       0.3034783855101729  0.8900537272663068  0.17384643018094978          1.0000   
         C         C         1.0       0.3169857408874325  0.9016140084004469  0.20166592212712603          1.0000   
         C         C         1.0       0.36533572289727245           0.9215651863222575 0.20932347793761566          1.0000   
         C         C         1.0       0.3280441867113975  0.890917630571352   0.11687222555102192          1.0000   
         C         C         1.0       0.2285796572086731  0.921017331554455   0.08601458213218183          1.0000   
         C         C         1.0       0.2375290396805985  0.8938904368808416  0.0704763591581421 1.0000   
         C         C         1.0       0.2701724572570828  0.8852224864062938  0.0797044213667073 1.0000   
         C         C         1.0       0.2924922893160584  0.9034594679768165  0.10621564616388213          1.0000   
         C         C         1.0       0.2871781186709672  0.9353032591156719  0.12025168205346189          1.0000   
         C         C         1.0       0.25130042587634177           0.9412005873567597 0.11115753974109925          1.0000   
         C         C         1.0       0.3025460080521441  0.8346414869872442  0.11606679172300202          1.0000   
         C         C         1.0       0.33027150603375965           0.8144632689061313 0.11555435839612183          1.0000   
         C         C         1.0       0.3064507056834604  0.7664423822417565  0.11870674677912921          1.0000   
         C         C         1.0       0.25490304364140187           0.7358969099284308 0.12086092210303108          1.0000   
         C         C         1.0       0.22792853754683068           0.7555638184110786 0.12209986904604715          1.0000   
         C         C         1.0       0.25366905350172847           0.8039731068988538 0.12090016919829451          1.0000   
         C         C         1.0       0.3926788992121945  0.9110666147846561  0.07304960192162113          1.0000   
         C         C         1.0       0.46668660396720074           0.8137325094984161 0.5875414261027603 1.0000   
         C         C         1.0       0.503028659158338   0.8145093919175644  0.6006409693410539 1.0000   
         C         C         1.0       0.4446832281613233  0.004708131995864617         0.08929319196054064          1.0000   
         C         C         1.0       0.40158837525673025           0.9720993315667071 0.10337979954421694          1.0000   
         C         C         1.0       0.3749561549417574  0.9243381313286723  0.09678392624296617          1.0000   
         H         H         1.0       0.4403448411053965  0.9632742215959592  0.2902401411802289 1.0000   
         H         H         1.0       0.44181920787100376           0.017836137462163615         0.20548352089141927          1.0000   
         H         H         1.0       0.5274492588862137  0.07773149932808798           0.21012778605886617          1.0000   
         H         H         1.0       0.5179292130436012  0.020566351227804924         0.2950450686958029 1.0000   
         H         H         1.0       0.3673983871099425  0.0008536018795080036        0.21971482419245725          1.0000   
         H         H         1.0       0.32336934990726895           0.029870566628749984         0.23971817248335   1.0000   
         H         H         1.0       0.3160187905540854  0.974140521198891   0.32436064025126843          1.0000   
         H         H         1.0       0.33491017291415476           0.9243559010360499 0.2991472672778299 1.0000   
         H         H         1.0       0.43207477094180763           0.9359491457683087 0.19417638205363055          1.0000   
         H         H         1.0       0.41075710657512315           0.920899415434766  0.1440636470130183 1.0000   
         H         H         1.0       0.2676620453290809  0.8825226485475995  0.1700999045893139 1.0000   
         H         H         1.0       0.29359537408399483           0.9042125003774734 0.21693977267311837          1.0000   
         H         H         1.0       0.41794941779549466           0.9566573886440025 0.5882965182009706 1.0000   
         H         H         1.0       0.27721302838248185           0.8627904235076226 0.06620700925280021          1.0000   
         H         H         1.0       0.31041262779336165           0.9555988508881833 0.13791146866509119          1.0000   
         H         H         1.0       0.245748245305891   0.9653828865507216  0.1218642163622427 1.0000   
         H         H         1.0       0.3717273010800963  0.8383249786322503  0.11372885914160841          1.0000   
         H         H         1.0       0.3282141731205356  0.7530342153498479  0.11913075605103224          1.0000   
         H         H         1.0       0.18823084561986594           0.7338076370308931 0.12351755641391673          1.0000   
         H         H         1.0       0.23475923564660525           0.819186708304341  0.12244674400852507          1.0000   
         H         H         1.0       0.41076664950038416           0.8254792129191043 0.5922890381889214 1.0000   
         H         H         1.0       0.4567948876105142  0.8020700751250911  0.5657045646058332 1.0000   
         H         H         1.0       0.46549921048632803           0.04296857182521907          0.09482778979234552          1.0000   
         H         H         1.0       0.3916283864763928  0.9845453483223968  0.12239370101057742          1.0000   
         C         C         1.0       0.46621448730145426           0.6483072694412779 0.5472147593322232 1.0000   
         C         C         1.0       0.4288038576204554  0.6026395659405612  0.5414262480012301 1.0000   
         C         C         1.0       0.39284071525445613           0.5924051377797903 0.5220456080916897 1.0000   
         C         C         1.0       0.39591378023660745           0.6293810587833916 0.5079523532026375 1.0000   
         C         C         1.0       0.4332641805749821  0.6741475607027172  0.5153187157369268 1.0000   
         C         C         1.0       0.46696798304555653           0.684886356087425  0.5350130771214896 1.0000   
         H         H         1.0       0.4292968315609459  0.5750242264942705  0.5487150729386938 1.0000   
         H         H         1.0       0.3700594610518427  0.5583990205270775  0.5129233925213532 1.0000   
         H         H         1.0       0.4404224064323944  0.7023892291559688  0.5022092282697229 1.0000   
         H         H         1.0       0.49845734548636395           0.7206222542567091 0.5383122187359987 1.0000   
         C         C         1.0       0.327477689863967   0.6566986825364718  0.5204341634855943 1.0000   
         C         C         1.0       0.33317613065836055           0.6476240617998485 0.49168308960280405          1.0000   
         C         C         1.0       0.30974943348535655           0.6543344909359616 0.4707028719957687 1.0000   
         C         C         1.0       0.27693194526360815           0.6655792187881909 0.47692341230294394          1.0000   
         C         C         1.0       0.273808657197347   0.6770779402797303  0.5057026362797499 1.0000   
         C         C         1.0       0.29955263972035095           0.6724758691952907 0.5276681445890564 1.0000   
         C         C         1.0       0.35791013995149223           0.6203957186565183 0.4839166593272342 1.0000   
         C         C         1.0       0.30962076247936526           0.5672186557679139 0.47891017221665616          1.0000   
         C         C         1.0       0.29367003145151555           0.5488465825601622 0.4500874645675785 1.0000   
         C         C         1.0       0.24880684607072873           0.5078484855225872 0.44548157323816834          1.0000   
         C         C         1.0       0.2153365950186682  0.48764428502880924           0.467778238801828  1.0000   
         C         C         1.0       0.2278760535767143  0.5046586718922798  0.4957668432746197 1.0000   
         C         C         1.0       0.27304743893051364           0.543754914179321  0.5005722283608377 1.0000   
         C         C         1.0       0.41047517246940757           0.6816437296337569 0.44063801615494813          1.0000   
         C         C         1.0       0.43249761035678386           0.6894568910819624 0.4132994132120465 1.0000   
         C         C         1.0       0.4354720289214637  0.655727024139551   0.3997382646476338 1.0000   
         C         C         1.0       0.4274046673128957  0.6199798582513325  0.4177879477800043 1.0000   
         C         C         1.0       0.4074355719862764  0.6132701392726402  0.44584753998794346          1.0000   
         C         C         1.0       0.393062475404639   0.6404516493159697  0.45605189033408566          1.0000   
         C         C         1.0       0.4369144699375764  0.6491682326101761  0.36590939410040135          1.0000   
         C         C         1.0       0.2805204567692278  0.5652965924414639  0.3514571492506773 1.0000   
         C         C         1.0       0.30419156945549114           0.6107955663387049 0.3586722935942307 1.0000   
         C         C         1.0       0.3544600531587319  0.6378469078858513  0.36289135133071265          1.0000   
         C         C         1.0       0.37996367523936264           0.6171791953637643 0.36155875268060533          1.0000   
         C         C         1.0       0.35304524321129405           0.569569247930527  0.35777776840206993          1.0000   
         C         C         1.0       0.304640338382268   0.5431363985856504  0.35183370259485375          1.0000   
         C         C         1.0       0.4696152328071007  0.6303094632633789  0.3581951295817698 1.0000   
         C         C         1.0       0.5123106895982236  0.6432854412628422  0.372195070615652  1.0000   
         C         C         1.0       0.5355041609249659  0.6217727040921308  0.36604101689093826          1.0000   
         C         C         1.0       0.518307249593673   0.5896548960538225  0.34327946034098655          1.0000   
         C         C         1.0       0.47766042575872725           0.577979091274669  0.3290703745138018 1.0000   
         C         C         1.0       0.454821039036676   0.5994477957278791  0.33594157920671336          1.0000   
         C         C         1.0       0.4434486118434441  0.696408309493725   0.320428485135778  1.0000   
         C         C         1.0       0.4677193410472878  0.7281887811006221  0.29910113305840236          1.0000   
         C         C         1.0       0.5176416185811819  0.7595880022875426  0.3016265678031845 1.0000   
         C         C         1.0       0.5380813280034451  0.7647481334286594  0.32913870379829285          1.0000   
         C         C         1.0       0.5090244238445876  0.7334676047212304  0.3515816305213633 1.0000   
         C         C         1.0       0.4622895137755817  0.6952246900323757  0.34674279237025823          1.0000   
         H         H         1.0       0.34281452727518574           0.6502605687165337 0.5386169194733762 1.0000   
         H         H         1.0       0.3175974640101434  0.649426257912369   0.4487921238917182 1.0000   
         H         H         1.0       0.2635129303732411  0.6749708748596237  0.45965684920120065          1.0000   
         H         H         1.0       0.2943272916294138  0.6779896226858595  0.5507458457100689 1.0000   
         H         H         1.0       0.31249064433537005           0.5650827919654176 0.42918408467548014          1.0000   
         H         H         1.0       0.24312545995010454           0.5015713653703986 0.42267227276306796          1.0000   
         H         H         1.0       0.19836178327917037           0.4819820926554547 0.5123725079082285 1.0000   
         H         H         1.0       0.2801298719921309  0.555500051591687   0.5242045983470208 1.0000   
         H         H         1.0       0.40267278115391686           0.7073259140692689 0.44804416279950215          1.0000   
         H         H         1.0       0.4398248298019844  0.7157489096458111  0.39909102289136034          1.0000   
         H         H         1.0       0.4288323521086281  0.591908507803848   0.4110022245239404 1.0000   
         H         H         1.0       0.404263376902327   0.5861248282249955  0.45960639659026525          1.0000   
         H         H         1.0       0.28342010975510723           0.6247554211184456 0.35949841468185917          1.0000   
         H         H         1.0       0.37139644842850866           0.6748187881006579 0.36596553360912404          1.0000   
         H         H         1.0       0.36934832561847913           0.551155188749463  0.36050907678927757          1.0000   
         H         H         1.0       0.2865040968526853  0.5054169707137907  0.35068544326904033          1.0000   
         H         H         1.0       0.5290203099625137  0.6703802672220032  0.38970407440012617          1.0000   
         H         H         1.0       0.5659065680349421  0.6307541258570276  0.3777742299058271 1.0000   
         H         H         1.0       0.4587531041921995  0.5501987948736735  0.3129179602653407 1.0000   
         H         H         1.0       0.42499058492252545           0.5897532864396988 0.31996266465427864          1.0000   
         H         H         1.0       0.40929935302422804           0.6684150098631697 0.31342203928531104          1.0000   
         H         H         1.0       0.447177913449445   0.7233725270033506  0.27910928279309266          1.0000   
         H         H         1.0       0.5764434126076555  0.7899826623172965  0.3326709577900416 1.0000   
         H         H         1.0       0.5284268058158172  0.734574627084001   0.37055957401429007          1.0000   
         C         C         1.0       0.09288115233972105           0.8329977646083381 0.1430436206037587 1.0000   
         C         C         1.0       0.12639640932532492           0.8230547866503941 0.140063294205057  1.0000   
         C         C         1.0       0.1137444325163095  0.7776696090913896  0.13821985759376015          1.0000   
         C         C         1.0       0.0637487932527816  0.7417723071839836  0.13614387816180915          1.0000   
         C         C         1.0       0.029436500548436717          0.7533770259810365 0.13434041028593252          1.0000   
         C         C         1.0       0.04397713086127397           0.798452167188079  0.1391124980434448 1.0000   
         H         H         1.0       0.1659126193096787  0.846552848584236   0.14281507511078886          1.0000   
         H         H         1.0       0.14323504694383504           0.774288809171438  0.13893109084763033          1.0000   
         H         H         1.0       0.9918878821482502  0.724832736930294   0.1305582077215973 1.0000   
         H         H         1.0       0.01786955032473947           0.8061586348531046 0.13844899691245155          1.0000   
         C         C         1.0       0.9934744261567444  0.6740804012792595  0.18302121203696   1.0000   
         C         C         1.0       0.9961892241649457  0.6557519960047234  0.1564734262630147 1.0000   
         C         C         1.0       0.964777483407941   0.6088250036049094  0.15246702796061762          1.0000   
         C         C         1.0       0.9290557242415749  0.5780355046824632  0.17263799351823136          1.0000   
         C         C         1.0       0.9255436974451766  0.5978625572519756  0.19774191720795148          1.0000   
         C         C         1.0       0.9612771177848771  0.6452112196284655  0.20340788683610117          1.0000   
         C         C         1.0       0.04409211519175793           0.6895140231766131 0.13582010816845394          1.0000   
         C         C         1.0       0.07692996821113085           0.6746110678616228 0.14748575275626044          1.0000   
         C         C         1.0       0.07487638676700108           0.6360426750835925 0.1365004066602359 1.0000   
         C         C         1.0       0.11130753142033788           0.6311658877061544 0.14017850763019063          1.0000   
         C         C         1.0       0.1503476645463135  0.6614751755074578  0.15774289962603139          1.0000   
         C         C         1.0       0.14526003602680984           0.6915023800614094 0.1759341686741885 1.0000   
         C         C         1.0       0.10908314719156809           0.6984373143292465 0.17048587025827175          1.0000   
         C         C         1.0       0.9815720393393902  0.6591925013795785  0.09222751319667899          1.0000   
         C         C         1.0       0.14376681157389126           0.8053022266301216 0.5631088921333947 1.0000   
         C         C         1.0       0.19206685971050286           0.8274844647476473 0.5536094908352478 1.0000   
         C         C         1.0       0.22008542368755735           0.8166513195482046 0.568728743452371  1.0000   
         C         C         1.0       0.06425398925766213           0.687011627205     0.08407157202763171          1.0000   
         C         C         1.0       0.02720701723097063           0.6753123574592608 0.10323964062702151          1.0000   
         C         C         1.0       0.2088786694540934  0.8512780301154543  0.5220838385576765 1.0000   
         C         C         1.0       0.3711058670104487  0.9691109077452454  0.5135500948290628 1.0000   
         C         C         1.0       0.35638550967984034           0.9236323550086217 0.5154874121017451 1.0000   
         C         C         1.0       0.3063025563266779  0.8872046938506676  0.5183339286436967 1.0000   
         C         C         1.0       0.2684087964522921  0.8933292648177841  0.5198571304815011 1.0000   
         C         C         1.0       0.2856179559152765  0.9395671207017094  0.5204196255495838 1.0000   
         C         C         1.0       0.33483961764598025           0.9763491154892363 0.5165715756142099 1.0000   
         C         C         1.0       0.1729801719687536  0.8674624068211723  0.512950287291224  1.0000   
         C         C         1.0       0.16962920908545587           0.8968185249425615 0.5333785952522648 1.0000   
         C         C         1.0       0.13338250413318686           0.902052027218998  0.5326640163189531 1.0000   
         C         C         1.0       0.09700115903171769           0.8781761080183699 0.5114719684629121 1.0000   
         C         C         1.0       0.10169219951512964           0.8550476117061767 0.4894005491326383 1.0000   
         C         C         1.0       0.13956628705292862           0.85037600078664   0.4891361824600486 1.0000   
         C         C         1.0       0.21913285306643293           0.8269284811672755 0.46908353836002037          1.0000   
         C         C         1.0       0.2068322977746111  0.7928528050820897  0.4474366707874666 1.0000   
         C         C         1.0       0.17762144011779868           0.744790630879912  0.45298245704914214          1.0000   
         C         C         1.0       0.16056766259737    0.7325445283360454  0.4806385677462635 1.0000   
         C         C         1.0       0.17066318927590518           0.76424354296665   0.5032817056802901 1.0000   
         C         C         1.0       0.20159082087997438           0.812931299255462  0.49805836352129756          1.0000   
         H         H         1.0       0.015624206097640592          0.7106368026347669 0.1886379750779651 1.0000   
         H         H         1.0       0.9660756429627015  0.5941958714822405  0.13266873315482267          1.0000   
         H         H         1.0       0.9051546760873361  0.5395987214207342  0.16960031544166976          1.0000   
         H         H         1.0       0.964011509536123   0.6611160769236304  0.22562949060228032          1.0000   
         H         H         1.0       0.042449730177739786          0.6104362327344458 0.12329851448178324          1.0000   
         H         H         1.0       0.11005346243502229           0.6027403513968355 0.12814140883257139          1.0000   
         H         H         1.0       0.17554880453663446           0.7206011226597625 0.18895565493975464          1.0000   
         H         H         1.0       0.11397992116568689           0.7274187513187266 0.1828055157683536 1.0000   
         H         H         1.0       0.9518020339987567  0.653057858175148   0.10673988769815512          1.0000   
         H         H         1.0       0.11762023120139498           0.8104403562784861 0.5537577282709233 1.0000   
         H         H         1.0       0.2533325735542715  0.8248163228669324  0.5588004448026356 1.0000   
         H         H         1.0       0.10274222031929536           0.7055042486961773 0.09016216501853425          1.0000   
         H         H         1.0       0.38253236334825025           0.916661133894217  0.5089498643768711 1.0000   
         H         H         1.0       0.3038570616302154  0.8563318098577462  0.5202271356623217 1.0000   
         H         H         1.0       0.25877273121560096           0.9479387837127794 0.5198072705051706 1.0000   
         H         H         1.0       0.3398359463635915  0.009496927108691988         0.5140137380632219 1.0000   
         H         H         1.0       0.18879765935410076           0.90605922383209   0.5543539932473329 1.0000   
         H         H         1.0       0.12946241232736377           0.9167623672602322 0.5520240130423839 1.0000   
         H         H         1.0       0.07816845553189511           0.8411321661078718 0.4701579430437284 1.0000   
         H         H         1.0       0.14318921669502505           0.8313270756994248 0.4709165255026871 1.0000   
         H         H         1.0       0.23983109772136535           0.8631884788250758 0.4632765091197607 1.0000   
         H         H         1.0       0.22240163985706407           0.8056942587341897 0.4252301897237245 1.0000   
         H         H         1.0       0.13719105837261147           0.6957510316063439 0.48294213028701116          1.0000   
         H         H         1.0       0.15543591740317386           0.7500878144166552 0.5251033078622557 1.0000   
         C         C         1.0       0.6666098916545986  0.3679307579106661  0.381858000564936  1.0000   
         C         C         1.0       0.621976654734315   0.36264779817774684           0.38960482418478465          1.0000   
         C         C         1.0       0.6036106070612546  0.37906200002521295           0.37217909128740484          1.0000   
         C         C         1.0       0.628466876354954   0.4021963933560024  0.3459877854656205 1.0000   
         C         C         1.0       0.6691462111302876  0.4033381867434625  0.3373630805959184 1.0000   
         C         C         1.0       0.6901942285089975  0.38905176906340294           0.3554344182424713 1.0000   
         H         H         1.0       0.5980456491144416  0.3406640156375756  0.4078217018565707 1.0000   
         H         H         1.0       0.567970162512016   0.3739736676173997  0.3778681128235411 1.0000   
         H         H         1.0       0.6861585742991313  0.41303270906951045           0.31500345419227405          1.0000   
         H         H         1.0       0.7221819213526655  0.38903475181985675           0.34844180280575904          1.0000   
         C         C         1.0       0.6832670625699959  0.4990845661672795  0.317856686391     1.0000   
         C         C         1.0       0.6421578203912717  0.4598672485206283  0.3055172161661478 1.0000   
         C         C         1.0       0.6369117331707137  0.46508596222697457           0.2758583171693964 1.0000   
         C         C         1.0       0.6682419211130686  0.5051270386827159  0.2602319788923744 1.0000   
         C         C         1.0       0.706838179680893   0.5423684077865816  0.2745857868815018 1.0000   
         C         C         1.0       0.7173605925905923  0.5392576879410732  0.3024171287884003 1.0000   
         C         C         1.0       0.6030226293596704  0.4170004163968058  0.3254496437787514 1.0000   
         C         C         1.0       0.5753973879906158  0.43904930880472    0.33713974239548433          1.0000   
         C         C         1.0       0.5415395483461117  0.43676162886712616           0.319603228310613  1.0000   
         C         C         1.0       0.5232885843049789  0.46369687376302726           0.3253410675435184 1.0000   
         C         C         1.0       0.5382373924129371  0.49094091450128097           0.35010754782934206          1.0000   
         C         C         1.0       0.5685890090899572  0.49083456638981726           0.3688274414038631 1.0000   
         C         C         1.0       0.5881729304635581  0.4668525732172583  0.3619893700394727 1.0000   
         C         C         1.0       0.5817010012207242  0.3548584469569311  0.28297839605700614          1.0000   
         C         C         1.0       0.5465699258754303  0.315740205971767   0.26769853644990876          1.0000   
         C         C         1.0       0.49783182395103504           0.28787404839473246          0.27604084109279686          1.0000   
         C         C         1.0       0.4854316254181175  0.29717901230192095           0.3031095182506712 1.0000   
         C         C         1.0       0.5198122898227303  0.33505167169496947           0.3194380384410741 1.0000   
         C         C         1.0       0.5678442214453009  0.36834373030833956           0.30819590160847776          1.0000   
         C         C         1.0       0.4568902943547032  0.2508248123586686  0.2536297170562389 1.0000   
         C         C         1.0       0.4337537706103248  0.3569765612035128  0.22892343510912358          1.0000   
         C         C         1.0       0.470212041578111   0.3548581892100333  0.21407963939595817          1.0000   
         C         C         1.0       0.47531873328510577           0.31960023075261457          0.22079976658739628          1.0000   
         C         C         1.0       0.4430517792875844  0.2843608725206827  0.2410879872313419 1.0000   
         C         C         1.0       0.40542413432858737           0.2864780246383311 0.25435096344625013          1.0000   
         C         C         1.0       0.40094391411976704           0.32206471240412793          0.2480603033975082 1.0000   
         C         C         1.0       0.40933175882791506           0.2040123548415993 0.26661109274008293          1.0000   
         C         C         1.0       0.4058039820524904  0.18294022785788247           0.29276697768560406          1.0000   
         C         C         1.0       0.36539742189840285           0.13954498854118122          0.29876099247637833          1.0000   
         C         C         1.0       0.33097212923987535           0.11374131974931623          0.278600327729665  1.0000   
         C         C         1.0       0.33290405242621274           0.13253406462827372          0.252972286596957  1.0000   
         C         C         1.0       0.37207370270940604           0.17743963724748843          0.2469700315702295 1.0000   
         C         C         1.0       0.4735806663489079  0.2292040208973242  0.20102074450383273          1.0000   
         C         C         1.0       0.48867247989166257           0.20780477218864737          0.18301644527660418          1.0000   
         C         C         1.0       0.5064294914391595  0.18301231936415183           0.19367832694168036          1.0000   
         C         C         1.0       0.505829404851808   0.17925887088687675           0.22480029502983004          1.0000   
         C         C         1.0       0.49533563808674486           0.20390926079906993          0.24208094945555905          1.0000   
         C         C         1.0       0.4779762491271196  0.22883340074406922           0.23049337997904956          1.0000   
         H         H         1.0       0.6917804244286657  0.50133857614139    0.3413152565262679 1.0000   
         H         H         1.0       0.60431921147009    0.4419837354682558  0.2647177600686534 1.0000   
         H         H         1.0       0.6607340723115538  0.5104647262728558  0.23797792045999053          1.0000   
         H         H         1.0       0.7505149808261028  0.5685207770276708  0.31340000798386   1.0000   
         H         H         1.0       0.5315941585385474  0.41665616223317614           0.2990345052032575 1.0000   
         H         H         1.0       0.4970540879916796  0.4648377355528439  0.3117659972136373 1.0000   
         H         H         1.0       0.5760771989002204  0.5104745215210026  0.38795051641399486          1.0000   
         H         H         1.0       0.6169076347484174  0.4706838328648386  0.3773860978184331 1.0000   
         H         H         1.0       0.6178160767000878  0.37772810081190206           0.2745911504267715 1.0000   
         H         H         1.0       0.5602373280564412  0.30686421599720454           0.24857225071470265          1.0000   
         H         H         1.0       0.4487221071021863  0.27596176238368336           0.30942784116360633          1.0000   
         H         H         1.0       0.5079639068661042  0.34274287993489966           0.3394826038733973 1.0000   
         H         H         1.0       0.4969841867360966  0.38721573360117706           0.19957554619108073          1.0000   
         H         H         1.0       0.5077899943802239  0.32335013499961157           0.21124294936211102          1.0000   
         H         H         1.0       0.383491912477868   0.26462008684250715           0.2725860291180061 1.0000   
         H         H         1.0       0.3747419092640417  0.3225702174866871  0.2601897762776309 1.0000   
         H         H         1.0       0.4384927752322485  0.19742724101599976           0.3059804436097468 1.0000   
         H         H         1.0       0.3643941477077844  0.11929497929650523           0.3163916489378389 1.0000   
         H         H         1.0       0.30121894894528467           0.11335815551657413          0.23949882259515853          1.0000   
         H         H         1.0       0.3707099868120432  0.1909033614233054  0.22657213417744398          1.0000   
         H         H         1.0       0.4601059594397817  0.24727268698894156           0.19163608652819852          1.0000   
         H         H         1.0       0.4806095284698232  0.20748258010934983           0.1606651447894851 1.0000   
         H         H         1.0       0.5131442166599224  0.15728527809912118           0.23392154517640507          1.0000   
         H         H         1.0       0.5021745013892394  0.20409839841713673           0.2649994238471557 1.0000   
         C         C         1.0       0.5417076608429381  0.5635136916946628  0.3386831401933043 1.0000   
         C         C         1.0       0.5157369112527739  0.5179000565557076  0.35656665106302604          1.0000   
         H         H         1.0       0.5805769742191818  0.5869591763861637  0.3414876490857709 1.0000   
         H         H         1.0       0.5399401730437289  0.5576693256520507  0.31510253934554294          1.0000   
         H         H         1.0       0.47766447592530936           0.49653429544802435          0.3491199508683635 1.0000   
         H         H         1.0       0.5165822216900284  0.5245082244717998  0.378871845285227  1.0000   
         C         C         1.0       0.19724875774766037           0.665290621182621  0.15623483067738636          1.0000   
         C         C         1.0       0.22802531697144102           0.6830683361292319 0.1258941931390388 1.0000   
         H         H         1.0       0.22592079590971584           0.6926381413577429 0.1713292290656523 1.0000   
         H         H         1.0       0.19152676821645892           0.6312547310752713 0.16156678615057485          1.0000   
         H         H         1.0       0.2512008857422521  0.6710715011759872  0.12523435223366305          1.0000   
         H         H         1.0       0.20031997405806615           0.6636325243868826 0.10951512215392711          1.0000   
         C         C         1.0       0.2927382801675991  0.02899343822777678           0.30082160565221533          1.0000   
         C         C         1.0       0.28604674209966335           0.06349699109893425          0.2841842254466076 1.0000   
         H         H         1.0       0.25540946099992506           0.9994169728616886 0.3100787241980791 1.0000   
         H         H         1.0       0.3126173005420715  0.04560830252581893           0.3210335644729073 1.0000   
         H         H         1.0       0.2584295256075222  0.06625355368982411           0.2962943805315533 1.0000   
         H         H         1.0       0.26931074435310326           0.04941961913139803          0.26418181813739006          1.0000   
         C         C         1.0       0.12808569766038147           0.45338481553044596          0.4480355166094129 1.0000   
         C         C         1.0       0.16362886706995136           0.4434914494223675 0.46081032399340627          1.0000   
         H         H         1.0       0.13972580240322352           0.46343340026435914          0.42460699246013106          1.0000   
         H         H         1.0       0.13861491636614054           0.48505417048649535          0.46049780398826495          1.0000   
         H         H         1.0       0.16958647071600153           0.4183783888801356 0.44821418635701593          1.0000   
         H         H         1.0       0.1458919392981426  0.4223653976199069  0.4813177817962024 1.0000   
         C         C         1.0       0.7730975768761     0.30109051393800007           0.6279487284960249 1.0000   
         C         C         1.0       0.8291360364142903  0.3241895752802714  0.6329293037140395 1.0000   
         H         H         1.0       0.7715401759887076  0.3300625600513124  0.6375658102468857 1.0000   
         H         H         1.0       0.7518967332002469  0.2722061149763117  0.6434587842744057 1.0000   
         H         H         1.0       0.8370406607764584  0.3368492177662307  0.655625987852558  1.0000   
         H         H         1.0       0.8530521174153699  0.3568397143042782  0.6205879751516258 1.0000   
         C         C         1.0       0.20769018842027992           0.9583095581049793 0.047854221171803824         1.0000   
         C         C         1.0       0.19040822570840768           0.9275197624121491 0.0756208252644166 1.0000   
         H         H         1.0       0.1754774127271409  0.9585403556870936  0.04045132218134628          1.0000   
         H         H         1.0       0.21407938858616737           0.9400100032044633 0.02997687318372666          1.0000   
         H         H         1.0       0.34647587491562876           0.9507788751407159 0.576963115902211  1.0000   
         H         H         1.0       0.28766727274748255           0.9111134242813675 0.5939812689692099 1.0000   
         C         C         1.0       0.5155038280422212  0.15379080041559653           0.1729300859352222 1.0000   
         C         C         1.0       0.4697959989521382  0.1062146438564493  0.16493970778638067          1.0000   
         H         H         1.0       0.5366004365562613  0.1787404321290716  0.15255468734775976          1.0000   
         H         H         1.0       0.5421185036027577  0.14876035149852987           0.1839918543516227 1.0000   
         H         H         1.0       0.44792433596661774           0.09416715220177752          0.18574090360971024          1.0000   
         H         H         1.0       0.48026975039524067           0.08281157214762125          0.158318427546128  1.0000   
         C         C         1.0       0.6918327558866815  0.3502166690424864  0.40077539955015334          1.0000   
         C         C         1.0       0.6926457151046993  0.36465224298004817           0.43183182268315257          1.0000   
         H         H         1.0       0.6714598597583648  0.3108489134816811  0.39682755858512136          1.0000   
         H         H         1.0       0.7304100096784603  0.3660079334469347  0.39262878151224323          1.0000   
         H         H         1.0       0.6603133047024725  0.3661163209452462  0.4358961092803684 1.0000   
         H         H         1.0       0.7264144711177607  0.40217522748058165           0.4357231702731389 1.0000   
         C         C         1.0       0.9150581925332838  0.5529298861027749  0.24432798119822247          1.0000   
         C         C         1.0       0.8892334356053638  0.5639748651608152  0.2207254350654469 1.0000   
         H         H         1.0       0.8885182904851773  0.5265173114453408  0.25980148730715036          1.0000   
         H         H         1.0       0.937954656781211   0.5877751565307576  0.2568328417680826 1.0000   
         H         H         1.0       0.8738425839540936  0.5798140276588158  0.23592528898769916          1.0000   
         H         H         1.0       0.8549884241558857  0.530192984196763   0.2127004627388319 1.0000   
         C         C         1.0       0.19271833581912887           0.512602715399656  0.3734925269788694 1.0000   
         C         C         1.0       0.2239911119089098  0.5363550933279644  0.34570317118239796          1.0000   
         H         H         1.0       0.19809388405301456           0.5363596141473274 0.3917369688985303 1.0000   
         H         H         1.0       0.2017654808218632  0.48939052631068697           0.38278538806204176          1.0000   
         H         H         1.0       0.21341899052294513           0.5060503987162325 0.3300909177543434 1.0000   
         H         H         1.0       0.2131417825236927  0.5571995081066143  0.33575975252188267          1.0000   
         C         C         1.0       0.8196694332975499  0.35967679910207695           0.40356793394134577          1.0000   
         C         C         1.0       0.7876870620607935  0.30711654774896074           0.41015791374674904          1.0000   
         H         H         1.0       0.8294957578388614  0.37982290461550533           0.4245937164484947 1.0000   
         H         H         1.0       0.8006235112556764  0.3707843796996215  0.3916704156065092 1.0000   
         H         H         1.0       0.7650894735511765  0.28644419924642256           0.39087540070587345          1.0000   
         H         H         1.0       0.7565181924898046  0.2983217289993117  0.4267460786476906 1.0000   
         C         C         1.0       0.13674979502921225           0.3089071421347916 0.5916186858747916 1.0000   
         C         C         1.0       0.10283893137352007           0.2763000692468523 0.6169310211321889 1.0000   
         H         H         1.0       0.12448378183764253           0.29187741377688003          0.5702679716841473 1.0000   
         H         H         1.0       0.17408480431201268           0.318725910579569  0.5938037110951917 1.0000   
         H         H         1.0       0.11007956595497337           0.24923490561186143          0.6165295745524795 1.0000   
         H         H         1.0       0.11341466037952519           0.29191569413778473          0.6396832976174234 1.0000   
         C         C         1.0       0.43857282435966816           0.42629513042314066          0.25474397901439916          1.0000   
         C         C         1.0       0.43388473229687635           0.40003759675346134          0.22647333824621796          1.0000   
         H         H         1.0       0.47608134133221014           0.4392792926125991 0.26239814692831037          1.0000   
         H         H         1.0       0.4121578032878245  0.40277925913928664           0.2727530463852042 1.0000   
         H         H         1.0       0.40001534350713785           0.38920424439130785          0.2140284624724575 1.0000   
         H         H         1.0       0.46156636882387037           0.423744922375722  0.2097524591772499 1.0000   
         C         C         1.0       0.5750495770464716  0.7716838241717172  0.25627170613758005          1.0000   
         C         C         1.0       0.5520657264105409  0.7908272376449768  0.27744144029624596          1.0000   
         H         H         1.0       0.6074950766755987  0.7769138407968619  0.26523785490399154          1.0000   
         H         H         1.0       0.5887913314610626  0.7954641182229358  0.2379996823334257 1.0000   
         H         H         1.0       0.5352059366241694  0.8020794695473573  0.2625778196246078 1.0000   
         H         H         1.0       0.582314294597389   0.8242836820670859  0.28919743913802154          1.0000   
         C         C         1.0       0.5461526249622549  0.6576008166593628  0.5491610245803583 1.0000   
         C         C         1.0       0.5061922590029342  0.6595869608269308  0.5671450128764511 1.0000   
         H         H         1.0       0.5804610025995252  0.6930560228098417  0.5467979107246762 1.0000   
         H         H         1.0       0.5381060972830919  0.646949493194      0.5256636770704538 1.0000   
         H         H         1.0       0.4929902813272413  0.6352483116591078  0.5857484405421554 1.0000   
         H         H         1.0       0.5210785007072827  0.6952772015254711  0.5781868913741157 1.0000   
         C         C         1.0       0.2824219521820943  0.6105682172720193  0.2777700687255634 1.0000   
         C         C         1.0       0.25436469923984073           0.6292389009342914 0.26316743863836484          1.0000   
         H         H         1.0       0.2582036013953615  0.5813942679717113  0.2929505229442414 1.0000   
         H         H         1.0       0.3123078210323382  0.6410452100996434  0.2903921984419736 1.0000   
         H         H         1.0       0.2728267764529918  0.6470335647944904  0.24290480909369305          1.0000   
         H         H         1.0       0.2595072014787638  0.6580666717528398  0.2763493362056922 1.0000   
         C         C         1.0       0.37665901897281    0.30594929688655303           0.07298919819419991          1.0000   
         C         C         1.0       0.4933280991148981  0.3375078351617947  0.6069643994431938 1.0000   
         H         H         1.0       0.4123020302873465  0.2866207511752122  0.6171548901052225 1.0000   
         H         H         1.0       0.3720773068330529  0.31451932074491    0.05078451024212872          1.0000   
         H         H         1.0       0.3021776675042511  0.2802819720978095  0.09088385775590592          1.0000   
         H         H         1.0       0.48299034977174116           0.32481491982410926          0.5842519777887761 1.0000   
         C         C         1.0       0.7546672019664499  0.6008400352744001  0.6653676569797674 1.0000   
         C         C         1.0       0.8012545072163375  0.6355375245243673  0.6451898940718537 1.0000   
         H         H         1.0       0.7614665618919016  0.6233112966700995  0.6860112381981325 1.0000   
         H         H         1.0       0.7536833667804737  0.5704925160263655  0.6718769213529556 1.0000   
         H         H         1.0       0.8008469382860568  0.6160358343259024  0.6244389880260154 1.0000   
         H         H         1.0       0.8354525265258795  0.6461986488581725  0.6565753439193689 1.0000   
         C         C         1.0       0.7744268376143288  0.00796088333263878           0.5711728848091954 1.0000   
         C         C         1.0       0.7439416290678048  0.9914022652811866  0.5410404284589526 1.0000   
         H         H         1.0       0.8007037208108286  0.998001123591682   0.5689832989448118 1.0000   
         H         H         1.0       0.7489098903443423  0.9837066252779226  0.587739576955202  1.0000   
         H         H         1.0       0.7654947355302757  0.020539966507471474         0.526613208908894  1.0000   
         H         H         1.0       0.7121322091198702  0.9910601946845535  0.5400758539719911 1.0000   
         C         C         1.0       0.018130356998178998          0.8290894528275238 0.5403814590674517 1.0000   
         C         C         1.0       0.046029431488554984          0.8681784830572257 0.5168366797582793 1.0000   
         H         H         1.0       0.042438589345080935          0.8339582956491325 0.5563978397535627 1.0000   
         H         H         1.0       0.011108167538127267          0.7967789541340535 0.5303531605679663 1.0000   
         H         H         1.0       0.05207961678799378           0.9011630217562064 0.5233710031146191 1.0000   
         H         H         1.0       0.02955971166076754           0.85973508750797   0.49513725555236154          1.0000   
         C         C         1.0       0.6113458647254708  0.07109709025106481           0.23251995102220616          1.0000   
         C         C         1.0       0.5877689171457701  0.08795834768107347           0.2543906650248415 1.0000   
         H         H         1.0       0.6271008027057849  0.09461882442147296           0.2143396167922515 1.0000   
         H         H         1.0       0.583692133801      0.03828828450690058           0.21935058905643076          1.0000   
         H         H         1.0       0.5962254897969517  0.12219429828912931           0.24912053942650825          1.0000   
         H         H         1.0       0.6019424189858255  0.0923075931526165  0.27728639451277737          1.0000   
         C         C         1.0       0.9049513501353578  0.0768084236109774  0.4400622686855294 1.0000   
         C         C         1.0       0.9340134271190139  0.12361976157688642           0.4223012582206789 1.0000   
         H         H         1.0       0.8959646465909183  0.07870220888869284           0.46260199131682217          1.0000   
         H         H         1.0       0.9259121313620077  0.06259669913953503           0.44103062751805433          1.0000   
         H         H         1.0       0.9248056751574555  0.11967651797200164           0.3994436210340229 1.0000   
         H         H         1.0       0.9739017685113412  0.13700118928917304           0.418982494112661  1.0000   
         C         C         1.0       0.5505051413840562  0.7805122135349843  0.44959180422577444          1.0000   
         C         C         1.0       0.5527990533016597  0.7388636789867233  0.44991704421430195          1.0000   
         H         H         1.0       0.5512303257988811  0.7884532520555009  0.47435518531697934          1.0000   
         H         H         1.0       0.5165583823003144  0.7734536862660326  0.440569226398867  1.0000   
         H         H         1.0       0.5478338881672985  0.7215385564742934  0.4285855409054335 1.0000   
         H         H         1.0       0.5200122709298918  0.7092115557622577  0.46019650395503947          1.0000   
         C         C         1.0       0.7221080888181897  0.8723972723717256  0.16729848279100232          1.0000   
         C         C         1.0       0.6991077121268992  0.8984911135567946  0.16666481615501486          1.0000   
         H         H         1.0       0.7061400240817569  0.844592744824177   0.18533596590915008          1.0000   
         H         H         1.0       0.7616068057564961  0.9017021439489997  0.17354513187058157          1.0000   
         H         H         1.0       0.7035839992170646  0.9171820389553795  0.14688171120265273          1.0000   
         H         H         1.0       0.6577673347773013  0.8747451854455515  0.16549694518219907          1.0000   
         C         C         1.0       0.9399079615851751  0.17188714412010567           0.303480363555395  1.0000   
         C         C         1.0       0.9482920639843955  0.1982513855618941  0.3325693274055708 1.0000   
         H         H         1.0       0.9580571808761695  0.15324533009763974           0.3072089666392272 1.0000   
         H         H         1.0       0.9668821171907788  0.19540883045602864           0.2853129434327619 1.0000   
         H         H         1.0       0.9841736496161242  0.21101534803060726           0.3414915092917468 1.0000   
         H         H         1.0       0.9175154437134058  0.1763923984594623  0.34826604239704695          1.0000   
         C         C         1.0       0.7967962895767307  0.5975725948387448  0.2517310828715414 1.0000   
         C         C         1.0       0.7457539690517131  0.5880715105778767  0.25846154251196196          1.0000   
         H         H         1.0       0.7956378800412439  0.5857058976513225  0.22848572354049987          1.0000   
         H         H         1.0       0.8022228373007108  0.5751770477909837  0.2655348867580388 1.0000   
         H         H         1.0       0.733223599758928   0.594894335487259   0.23855109236356167          1.0000   
         H         H         1.0       0.7553155622755856  0.6201418758309956  0.27096501451991173          1.0000   
         C         C         1.0       0.10732723551460133           0.8832573219312353 0.15042039233755172          1.0000   
         C         C         1.0       0.11493244484143084           0.8958632257374017 0.18425695559811506          1.0000   
         H         H         1.0       0.14372107186326732           0.9076825037048678 0.1405853200742825 1.0000   
         H         H         1.0       0.08473597187315796           0.8915187242453476 0.1403939269890591 1.0000   
         H         H         1.0       0.12915862093925434           0.934087485895101  0.18606895678308574          1.0000   
         H         H         1.0       0.14050611645293998           0.889607562492823  0.19518523811111121          1.0000   
         C         C         1.0       0.11282147867899806           0.6770216805822739 0.41787932656700455          1.0000   
         C         C         1.0       0.16453618652720792           0.7051514144057853 0.4309448462258376 1.0000   
         H         H         1.0       0.08115487111737374           0.651596611719472  0.4343434199108167 1.0000   
         H         H         1.0       0.11020336268959863           0.6542868598921524 0.4000115053907592 1.0000   
         H         H         1.0       0.1878255463015952  0.7189564039826215  0.41144046398878437          1.0000   
         H         H         1.0       0.17007184485061821           0.6794038206322593 0.43784487185998383          1.0000   
         C         C         1.0       0.9012226491241712  0.8395127813538373  0.4245487167628404 1.0000   
         C         C         1.0       0.9413358896523722  0.843728512870448   0.44434058741781834          1.0000   
         H         H         1.0       0.8841731984331168  0.8067177707167893  0.41133112934393384          1.0000   
         H         H         1.0       0.9167436462031787  0.8656083560855442  0.40588311694782386          1.0000   
         H         H         1.0       0.9210099239457477  0.8191873302249284  0.4622623181730314 1.0000   
         H         H         1.0       0.9606973916204048  0.8795961291619637  0.452418487821091  1.0000   
         C         C         1.0       0.829723690748601   0.8448116504956359  0.3255598111318128 1.0000   
         C         C         1.0       0.7837189991641512  0.8036438956288071  0.3420082238582315 1.0000   
         H         H         1.0       0.8468950063385886  0.8773638351233785  0.33944470383018754          1.0000   
         H         H         1.0       0.8200943893514652  0.8587879380645479  0.3066171062185451 1.0000   
         H         H         1.0       0.7927917792512015  0.7855014536705183  0.35681312221682493          1.0000   
         H         H         1.0       0.7615809906361278  0.7734074602219861  0.3268506216673248 1.0000   
         C         C         1.0       0.24225007143352237           0.6937251504607543 0.5170939324282364 1.0000   
         C         C         1.0       0.2734339152604764  0.748603678073482   0.5196535009862121 1.0000   
         H         H         1.0       0.20902847747635606           0.676834960622421  0.5040351461827315 1.0000   
         H         H         1.0       0.23073627470447985           0.6835730795224515 0.5405212051688241 1.0000   
         H         H         1.0       0.2952332758879126  0.7611609436840695  0.5397248351044973 1.0000   
         H         H         1.0       0.2468968842833689  0.7571694450471035  0.524525721126093  1.0000   
         C         C         1.0       0.4573869882283671  0.021852942468245207         0.5294026687601496 1.0000   
         C         C         1.0       0.4214152879841694  0.006310292067909229         0.5033848938344438 1.0000   
         H         H         1.0       0.44014462887192535           0.007391125778685392         0.5507955831750465 1.0000   
         H         H         1.0       0.477691848653369   0.060999641012235095         0.5309967316393173 1.0000   
         H         H         1.0       0.42097038509888046           0.035817599408515255         0.49740250935371766          1.0000   
         H         H         1.0       0.43575136369871514           0.9966383499714123 0.4845848894018229 1.0000   
         C         C         1.0       0.7531123820852328  0.12022171673797866           0.43835446479541923          1.0000   
         C         C         1.0       0.7286745650996742  0.14504436168772683           0.4310590844176601 1.0000   
         H         H         1.0       0.7835456789119757  0.1457325004305056  0.4526437837739696 1.0000   
         H         H         1.0       0.771304446421093   0.11811982551780487           0.4177387723084973 1.0000   
         H         H         1.0       0.6993008179663921  0.1261969214775338  0.415151584779651  1.0000   
         H         H         1.0       0.7602783561449346  0.17746696010778895           0.41892519856817034          1.0000   
         C         C         1.0       0.3204245605997119  0.973677143108562   0.42393354487325746          1.0000   
         C         C         1.0       0.289277609681847   0.9768142581233438  0.4013280745026317 1.0000   
         H         H         1.0       0.2994881120598402  0.9611865267079567  0.4451338487919651 1.0000   
         H         H         1.0       0.3471570213112278  0.009850990722394481         0.4301065786397805 1.0000   
         H         H         1.0       0.28064061173995924           5.4691336799139734e-05       0.409830641807976  1.0000   
         H         H         1.0       0.31180887440931027           0.99420155436379   0.37989835649948   1.0000   
         C         C         1.0       0.5337123277476277  0.8023543535423372  0.5842630843284895 1.0000   
         C         C         1.0       0.5869787629125884  0.8447427395622492  0.5750996948932756 1.0000   
         H         H         1.0       0.5378123652394955  0.777567442563643   0.5952385815955291 1.0000   
         H         H         1.0       0.514760467974212   0.7834463788558896  0.5632825832161502 1.0000   
         H         H         1.0       0.6075624140778023  0.8296846645615178  0.5692948012906158 1.0000   
         H         H         1.0       0.6089335341650176  0.8676511189166245  0.5927648872036491 1.0000   
         C         C         1.0       0.3963930950481116  0.7766738231318799  0.3091432592762072 1.0000   
         C         C         1.0       0.35467117547867316           0.768735452982685  0.28853931344232736          1.0000   
         H         H         1.0       0.3896654194047959  0.7427862758206445  0.31448010144586636          1.0000   
         H         H         1.0       0.4327222043271394  0.7964419840418673  0.29648021573942374          1.0000   
         H         H         1.0       0.31970440929239313           0.7451979174674633 0.30101738804107253          1.0000   
         H         H         1.0       0.35233821320680164           0.7477406548223856 0.2688430452099532 1.0000   
         C         C         1.0       0.444387235888902   0.8433516027223228  0.8325404324313098 1.0000   
         C         C         1.0       0.4009704771566142  0.8346009653390236  0.8259164309438869 1.0000   
         C         C         1.0       0.36693142874094037           0.8265057781191011 0.8475120498218724 1.0000   
         C         C         1.0       0.3775357332368753  0.828779286144862   0.8775593486106624 1.0000   
         C         C         1.0       0.4227171605823766  0.8358055052056209  0.8830740866828762 1.0000   
         C         C         1.0       0.4555398572463485  0.8417541678368093  0.8607404167417093 1.0000   
         H         H         1.0       0.39126230085230873           0.8335534351753306 0.8042632337867475 1.0000   
         H         H         1.0       0.3373220322822663  0.8261347644321674  0.8406581615670843 1.0000   
         H         H         1.0       0.4385671536900698  0.8420904362139455  0.9047838591420773 1.0000   
         H         H         1.0       0.48869189113508815           0.8435992191110757 0.8664416152382849 1.0000   
         C         C         1.0       0.3649083681603403  0.7820342436111423  0.9356845931082204 1.0000   
         C         C         1.0       0.34644911597454187           0.8088659779555961 0.9309064331037192 1.0000   
         C         C         1.0       0.3308959174223261  0.8194288700929065  0.956897347862135  1.0000   
         C         C         1.0       0.34526011609908086           0.8154502415254753 0.9846836955203815 1.0000   
         C         C         1.0       0.3695620827066163  0.7952988039769867  0.9880591165581344 1.0000   
         C         C         1.0       0.3756494672318416  0.7762601572418697  0.9633486161504814 1.0000   
         C         C         1.0       0.3471733403925764  0.8320128763099718  0.9017095135099573 1.0000   
         C         C         1.0       0.28740880473848457           0.8024786935645537 0.8961140959956878 1.0000   
         C         C         1.0       0.2586317714737847  0.8152035031702448  0.9089407043859703 1.0000   
         C         C         1.0       0.21059149847340664           0.7938860376999419 0.9037555279109021 1.0000   
         C         C         1.0       0.18418447653722955           0.7520605597356048 0.8882756498236377 1.0000   
         C         C         1.0       0.20964997517097772           0.7347740749917078 0.8787304024723502 1.0000   
         C         C         1.0       0.26128265133194917           0.7595170848190272 0.880820930963449  1.0000   
         C         C         1.0       0.4116464484163813  0.9137089117342917  0.9236901920418152 1.0000   
         C         C         1.0       0.42117040517222626           0.9547038112090972 0.9346897580536694 1.0000   
         C         C         1.0       0.39434684344811716           0.9705454032034468 0.9260460349398696 1.0000   
         C         C         1.0       0.36728667721548064           0.952982970738678  0.9010545884432463 1.0000   
         C         C         1.0       0.3595358980579763  0.9118350108051275  0.8881876087810074 1.0000   
         C         C         1.0       0.37425507569887195           0.8873576819607571 0.9040717717403032 1.0000   
         C         C         1.0       0.38814250829143265           0.0047289897248670165        0.9491933094606305 1.0000   
         C         C         1.0       0.2664162532647828  0.8764199940294433  0.9931110509872931 1.0000   
         C         C         1.0       0.3127869159414752  0.9037927585715038  0.005166566776279025         1.0000   
         C         C         1.0       0.34971050364155654           0.9446899081386817 0.9926208782856858 1.0000   
         C         C         1.0       0.3421647317950519  0.9617405201374197  0.967053010378331  1.0000   
         C         C         1.0       0.29371247469461    0.9343609494762488  0.9571091428532621 1.0000   
         C         C         1.0       0.25693029451805544           0.8929541393985265 0.9701758093309787 1.0000   
         C         C         1.0       0.3761863946996714  0.03832843680316289           0.935659396837259  1.0000   
         C         C         1.0       0.3999666986453114  0.05789280843402489           0.9092258299271003 1.0000   
         C         C         1.0       0.3884219342397744  0.08169579010801309           0.8922914278813251 1.0000   
         C         C         1.0       0.352907621129507   0.0882782641729889  0.9023582346105015 1.0000   
         C         C         1.0       0.3309172977519505  0.07188736425147679           0.929076621007609  1.0000   
         C         C         1.0       0.3434743573293707  0.04870468792348137           0.9468805097375702 1.0000   
         C         C         1.0       0.4231206670210838  0.05064481582106195           0.9984299598505353 1.0000   
         C         C         1.0       0.45659985903136113           0.06910934945785807          0.021363381535693282         1.0000   
         C         C         1.0       0.5020386936493774  0.07591437030366244           0.01560522606081216          1.0000   
         C         C         1.0       0.5171985854241733  0.07267242561470888           0.9871373599746913 1.0000   
         C         C         1.0       0.4819358372972041  0.05946564585249403           0.9646299529268701 1.0000   
         C         C         1.0       0.43402263988529177           0.04092204410105471          0.9710963868869094 1.0000   
         H         H         1.0       0.3695217716159456  0.7628348081887504  0.9182444334394194 1.0000   
         H         H         1.0       0.31232769256081405           0.8358594158194915 0.956848654946479  1.0000   
         H         H         1.0       0.3404468515964793  0.8334969362719947  0.0024843178069495764        1.0000   
         H         H         1.0       0.39208151306220024           0.7578954037316392 0.9649589332021232 1.0000   
         H         H         1.0       0.27271756875559183           0.8472926104046142 0.921396689015694  1.0000   
         H         H         1.0       0.1885975495661234  0.8057099356754416  0.9130825590773275 1.0000   
         H         H         1.0       0.1920225706494478  0.6982636600389323  0.867994595322833  1.0000   
         H         H         1.0       0.2789871057443408  0.7425738569469077  0.8728707994921806 1.0000   
         H         H         1.0       0.42794863148936585           0.8996181394377142 0.9346983051491843 1.0000   
         H         H         1.0       0.4419411204759617  0.9656919107779074  0.9546375025923687 1.0000   
         H         H         1.0       0.3497802592716154  0.9665406971309928  0.8941848212836881 1.0000   
         H         H         1.0       0.33395358166851624           0.8953419106314284 0.870062126000643  1.0000   
         H         H         1.0       0.32091417127365496           0.8889903854248373 0.02327935712597151          1.0000   
         H         H         1.0       0.38275621657686354           0.9610079047144637 0.004338877406746988         1.0000   
         H         H         1.0       0.2844299271269058  0.9388032024846223  0.9368769817539938 1.0000   
         H         H         1.0       0.22277367432554396           0.875373348118636  0.95999213482324   1.0000   
         H         H         1.0       0.4315164874401475  0.060637944547064615         0.9003889655569068 1.0000   
         H         H         1.0       0.4113656503591395  0.0990044110975703  0.8738845622651331 1.0000   
         H         H         1.0       0.30488162619793496           0.07743764360152006          0.9369964492786335 1.0000   
         H         H         1.0       0.31564534323274684           0.025078477739456817         0.9637014776146728 1.0000   
         H         H         1.0       0.38721477961030015           0.039331762904678325         0.005318824925960808         1.0000   
         H         H         1.0       0.44684436137978384           0.07299081405798091          0.04352814628884194          1.0000   
         H         H         1.0       0.5524490146710177  0.07843784734211123           0.9837921860794612 1.0000   
         H         H         1.0       0.4959263584302423  0.06039458906196793           0.9437617009991888 1.0000   
         C         C         1.0       0.9149200947866116  0.7196349180495025  0.711052124378294  1.0000   
         C         C         1.0       0.9275076463278665  0.7603503995529345  0.723230992558579  1.0000   
         C         C         1.0       0.898138979232796   0.7614463000123373  0.7458632037390559 1.0000   
         C         C         1.0       0.8526922226600191  0.721483536173424   0.7543031235521144 1.0000   
         C         C         1.0       0.8395513225108658  0.6792523036432646  0.7410485476168983 1.0000   
         C         C         1.0       0.8702856642907253  0.6775985242040928  0.7203805386885258 1.0000   
         H         H         1.0       0.9623739836988866  0.7923420618158562  0.7174757167902835 1.0000   
         H         H         1.0       0.9085209307608726  0.7961046383034167  0.7517926853936683 1.0000   
         H         H         1.0       0.8070068889339039  0.6484988987528587  0.7495130422670429 1.0000   
         H         H         1.0       0.8610575891588413  0.6450957742819755  0.710871454111457  1.0000   
         C         C         1.0       0.7483600447502794  0.6840604336372137  0.7439552896210915 1.0000   
         C         C         1.0       0.7631808452913296  0.6927146217437503  0.7726717697984509 1.0000   
         C         C         1.0       0.7277769949528775  0.6781777546947144  0.7937470973905921 1.0000   
         C         C         1.0       0.6773925738846432  0.6569304590047409  0.787154373311139  1.0000   
         C         C         1.0       0.665977782675122   0.6486594668733238  0.7579819562620201 1.0000   
         C         C         1.0       0.7010875638906637  0.6597268465351     0.7368244286712913 1.0000   
         C         C         1.0       0.8199693035696869  0.7220267241551206  0.7798918219869168 1.0000   
         C         C         1.0       0.830550022843353   0.7707374485387796  0.7880586863295334 1.0000   
         C         C         1.0       0.8297402936762156  0.7821153974656437  0.817793876507606  1.0000   
         C         C         1.0       0.8319087598704382  0.820950446829398   0.8252901340693279 1.0000   
         C         C         1.0       0.8322546674452441  0.8477936364109225  0.8048369948339283 1.0000   
         C         C         1.0       0.8341094448873468  0.8393062073759024  0.7754371043426309 1.0000   
         C         C         1.0       0.8335348049968527  0.8009235102595923  0.7666999402065534 1.0000   
         C         C         1.0       0.8086485433744323  0.6639609459430221  0.8205802240138252 1.0000   
         C         C         1.0       0.8261018873804062  0.6538943418185639  0.844538936172887  1.0000   
         C         C         1.0       0.875537451204838   0.6837832565106068  0.8507146487763828 1.0000   
         C         C         1.0       0.9041899096395972  0.7231929565138187  0.8348548982728229 1.0000   
         C         C         1.0       0.8855079646420617  0.7330771116736869  0.8129848394449135 1.0000   
         C         C         1.0       0.8371075533178942  0.7019258407113316  0.8039043772800543 1.0000   
         C         C         1.0       0.8959093682581141  0.6795887946754084  0.8819704298603092 1.0000   
         C         C         1.0       0.8631897296685843  0.77470218661121    0.9217202900945106 1.0000   
         C         C         1.0       0.8277853765685196  0.726254536436834   0.9209122994082067 1.0000   
         C         C         1.0       0.8413489340453816  0.6979548339912796  0.9121183286990324 1.0000   
         C         C         1.0       0.8894890527687576  0.7145982070904916  0.9023115235125508 1.0000   
         C         C         1.0       0.9223950403928551  0.7619683925367025  0.9035607780712854 1.0000   
         C         C         1.0       0.9116518659918421  0.7917614713710749  0.9156214414830005 1.0000   
         C         C         1.0       0.951707525029964   0.6960529081103815  0.8803206280692986 1.0000   
         C         C         1.0       0.970146069806147   0.6897151781782513  0.8553639847655061 1.0000   
         C         C         1.0       0.018592529815371295          0.7011669962592174 0.8553092103471825 1.0000   
         C         C         1.0       0.05028628636888732           0.721724542932068  0.8781602653665365 1.0000   
         C         C         1.0       0.030435691155803468          0.7272183917039385 0.9030750928109069 1.0000   
         C         C         1.0       0.9813768679405485  0.7127204346202725  0.9057673338107612 1.0000   
         C         C         1.0       0.8605119917545323  0.5935706218570049  0.8782613894388981 1.0000   
         C         C         1.0       0.8435262216764897  0.5513278725215003  0.8897016876982531 1.0000   
         C         C         1.0       0.8377827943852227  0.5457844428514557  0.9204470016768757 1.0000   
         C         C         1.0       0.8448687044450222  0.5803062279879285  0.937572385084478  1.0000   
         C         C         1.0       0.8618550592915473  0.6221805913226225  0.925963447177766  1.0000   
         C         C         1.0       0.8700650133997884  0.629214467890551   0.895915904549134  1.0000   
         H         H         1.0       0.7756615799290604  0.7002104958366688  0.7258573334666    1.0000   
         H         H         1.0       0.7381104813381787  0.6887577265702655  0.8166528740077763 1.0000   
         H         H         1.0       0.6502271889771494  0.6482646398606589  0.8041312209286099 1.0000   
         H         H         1.0       0.6912395248748663  0.6560987295980065  0.7139172293750649 1.0000   
         H         H         1.0       0.8271689705773344  0.7600504035520877  0.8356478459657911 1.0000   
         H         H         1.0       0.8327883798875759  0.8268626976006598  0.8494029406951639 1.0000   
         H         H         1.0       0.8369652467288781  0.8632266103231977  0.7587987011306966 1.0000   
         H         H         1.0       0.8283968872726065  0.7885079493445742  0.7445644605392762 1.0000   
         H         H         1.0       0.7696666664174071  0.6414184227594825  0.8163203339736105 1.0000   
         H         H         1.0       0.8006007015261265  0.6228158431097625  0.8572648636651461 1.0000   
         H         H         1.0       0.9413724376758217  0.7513682593832234  0.8390322257915022 1.0000   
         H         H         1.0       0.9091800635486871  0.7651835104512602  0.8013297721254794 1.0000   
         H         H         1.0       0.78877854808154    0.7089366731752712  0.9255166285423565 1.0000   
         H         H         1.0       0.8121258797932716  0.6603596462146772  0.9083770571779669 1.0000   
         H         H         1.0       0.9584589731152398  0.7798061551592741  0.8909297621930584 1.0000   
         H         H         1.0       0.9410674846363667  0.827806959755672   0.9188664949130748 1.0000   
         H         H         1.0       0.9500987374580323  0.6745283972692847  0.8344850969289257 1.0000   
         H         H         1.0       0.03181857970907709           0.6934491625749245 0.8356044808165012 1.0000   
         H         H         1.0       0.055258165278417204          0.7483564343053722 0.9208870196806782 1.0000   
         H         H         1.0       0.9728682925196287  0.7216176603876887  0.9256508435168559 1.0000   
         H         H         1.0       0.8733017799725522  0.6002715327370677  0.8560038774874684 1.0000   
         H         H         1.0       0.8396335405690825  0.5214324175492425  0.8754012951204536 1.0000   
         H         H         1.0       0.8421944585459186  0.5799108842331293  0.9617450170387651 1.0000   
         H         H         1.0       0.868032614809706   0.648430279314758   0.9412759420984493 1.0000   
         C         C         1.0       0.841329761626782   0.02531058811776532           0.6695492331003887 1.0000   
         C         C         1.0       0.8768589512848725  0.06946737005593451           0.6629028582444012 1.0000   
         C         C         1.0       0.885022116189289   0.1065131296278623  0.6801799473594538 1.0000   
         C         C         1.0       0.855929413153526   0.09833655873159519           0.7056483393338081 1.0000   
         C         C         1.0       0.8146172438181626  0.05203473461622443           0.7109609261905432 1.0000   
         C         C         1.0       0.807715790301692   0.015586459993208734         0.6930233674551758 1.0000   
         H         H         1.0       0.8985847396232894  0.07765583879881399           0.6442650889102476 1.0000   
         H         H         1.0       0.9147828744892161  0.14123574321583154           0.6751558389563364 1.0000   
         H         H         1.0       0.7898415014466161  0.04565216823261409           0.7293262540270359 1.0000   
         H         H         1.0       0.7771567130641439  0.9782943840200168  0.695293790002035  1.0000   
         C         C         1.0       0.7942871602162273  0.1325634951232051  0.723243596994705  1.0000   
         C         C         1.0       0.8448485289289068  0.15955061961530936           0.7184843933798515 1.0000   
         C         C         1.0       0.8680294375384295  0.20131691376459182           0.7035471073917454 1.0000   
         C         C         1.0       0.8404412101073492  0.21452676997255615           0.6935238981998887 1.0000   
         C         C         1.0       0.7904709273234412  0.18846355057468722           0.6990323771703058 1.0000   
         C         C         1.0       0.7679648126710249  0.14664592419723776           0.7133551604802465 1.0000   
         C         C         1.0       0.8718210406270309  0.1383851210420064  0.728937962388075  1.0000   
         C         C         1.0       0.9294413430511317  0.18057261300657457           0.7364103757327161 1.0000   
         C         C         1.0       0.9419373114222739  0.22024402818210986           0.754333386197846  1.0000   
         C         C         1.0       0.9884952531517924  0.24997467394121498           0.7646743203507991 1.0000   
         C         C         1.0       0.024092219099867362          0.24098999415510214          0.7598991378506718 1.0000   
         C         C         1.0       0.013086526353024208          0.20235950282699977          0.7434661624853023 1.0000   
         C         C         1.0       0.9665946045325297  0.17442477813612967           0.7317294905372844 1.0000   
         C         C         1.0       0.841551383824115   0.13711687747689316           0.7839515848880889 1.0000   
         C         C         1.0       0.8321859593333875  0.12245956883119269           0.8122229281624803 1.0000   
         C         C         1.0       0.835839102464757   0.08582221908368814           0.8184478903996321 1.0000   
         C         C         1.0       0.8579023068073697  0.07319758004457899           0.7969363333827094 1.0000   
         C         C         1.0       0.8645795531931773  0.08746245798804231           0.769352062421085  1.0000   
         C         C         1.0       0.8578885101589883  0.11905931609654097           0.7621109103661106 1.0000   
         C         C         1.0       0.8357355378331079  0.07212223471816781           0.8509095346461539 1.0000   
         C         C         1.0       0.9823207422820043  0.19446628425029133           0.8805894990902047 1.0000   
         C         C         1.0       0.9391023105321306  0.19466531479030635           0.8853180685884919 1.0000   
         C         C         1.0       0.8939918451798327  0.15493936121544882           0.8776984435879727 1.0000   
         C         C         1.0       0.8901632706827992  0.11781106446832212           0.8633382388763472 1.0000   
         C         C         1.0       0.9329081916449157  0.12096309837684549           0.8555847771478484 1.0000   
         C         C         1.0       0.9798089823126966  0.1597865079583798  0.8645411158874333 1.0000   
         C         C         1.0       0.8246584076049324  0.021348550401463218         0.8535285616409728 1.0000   
         C         C         1.0       0.7875631092150859  0.9855544234397037  0.8368106799327736 1.0000   
         C         C         1.0       0.7835104044135607  0.9451284913400467  0.831906822597799  1.0000   
         C         C         1.0       0.8135268965358025  0.9368317503741223  0.8452343205534916 1.0000   
         C         C         1.0       0.8486382552184898  0.971435792836335   0.8642334401733743 1.0000   
         C         C         1.0       0.8526111228060691  0.012331732932876704         0.870367730850952  1.0000   
         C         C         1.0       0.7441000282195052  0.0510188944156138  0.8552968387100817 1.0000   
         C         C         1.0       0.7049356378543024  0.03874933182299811           0.8727739604755492 1.0000   
         C         C         1.0       0.7064736838331528  0.0375515717575603  0.9027936644562783 1.0000   
         C         C         1.0       0.7491424998591271  0.049986610801044495         0.9154795374714804 1.0000   
         C         C         1.0       0.7890394729249306  0.05985187890273558           0.8987133165405565 1.0000   
         C         C         1.0       0.7884286837352877  0.06298003678642972           0.8672983303137362 1.0000   
         H         H         1.0       0.7742479971114417  0.0967302292504364  0.7308632107725611 1.0000   
         H         H         1.0       0.9055995946161025  0.22036293624123338           0.6984115132352474 1.0000   
         H         H         1.0       0.8559197713766011  0.24406437834299138           0.6797887632720887 1.0000   
         H         H         1.0       0.7282556388317014  0.12585263732883867           0.7151639946874014 1.0000   
         H         H         1.0       0.9157117135381823  0.22732304301583772           0.7624132973940011 1.0000   
         H         H         1.0       0.0014347436102599698         0.28046731241385386          0.778402548586137  1.0000   
         H         H         1.0       0.03819898270240918           0.1940554417638447 0.7417485555275203 1.0000   
         H         H         1.0       0.9606243527784099  0.1456021855626941  0.7194751011171986 1.0000   
         H         H         1.0       0.839829393940667   0.16657392796001957           0.7820805971593252 1.0000   
         H         H         1.0       0.8207743038949679  0.13775087527521035           0.8287797225249214 1.0000   
         H         H         1.0       0.8726469408805657  0.05633330095102229           0.8052701933163351 1.0000   
         H         H         1.0       0.8809256481055682  0.07689064055386607           0.7550216241129227 1.0000   
         H         H         1.0       0.9383414420768621  0.2244866962054033  0.8908676469698338 1.0000   
         H         H         1.0       0.8628669702507639  0.15603183545519705           0.878409837944773  1.0000   
         H         H         1.0       0.9277424053551734  0.09083638198457922           0.845953670838718  1.0000   
         H         H         1.0       0.015039406191482252          0.16253420079704606          0.8591818476696961 1.0000   
         H         H         1.0       0.7683076891866477  0.9945514022616779  0.8223947093008042 1.0000   
         H         H         1.0       0.754147503367083   0.9191960905031797  0.8164634136659794 1.0000   
         H         H         1.0       0.8784476421168913  0.9701351342326201  0.8705188224835447 1.0000   
         H         H         1.0       0.8776333083540959  0.036627002098652994         0.8876317357240415 1.0000   
         H         H         1.0       0.7400483100626247  0.046771401369847254         0.8330220562171076 1.0000   
         H         H         1.0       0.6734012750529491  0.027742923796719943         0.8611989501406472 1.0000   
         H         H         1.0       0.7509015221252718  0.055546340114484005         0.9389653399496817 1.0000   
         H         H         1.0       0.8202410179161256  0.0711714736607163  0.910479825758954  1.0000   
         C         C         1.0       0.8564162005055315  0.9228529090350216  0.6557920350902323 1.0000   
         C         C         1.0       0.8965183570532802  0.9315589103822716  0.6383885937550218 1.0000   
         C         C         1.0       0.7657744529362702  0.834103860171191   0.10232545263548043          1.0000   
         C         C         1.0       0.724049210148666   0.806988201821221   0.08641104305776026          1.0000   
         C         C         1.0       0.6808379666972166  0.7988053280908505  0.09861876979218964          1.0000   
         C         C         1.0       0.8127572956413103  0.8780779410881285  0.6542566108269972 1.0000   
         H         H         1.0       0.9299305060468162  0.9691859395545377  0.6398333925279783 1.0000   
         H         H         1.0       0.8001367148130429  0.8404331314052089  0.09576010297344162          1.0000   
         H         H         1.0       0.6496003202328859  0.7797626731047076  0.08522314999934921          1.0000   
         H         H         1.0       0.7791310505095722  0.8696549801319862  0.6675993589523006 1.0000   
         C         C         1.0       0.6585934141433516  0.7044395799010367  0.05770521814827556          1.0000   
         C         C         1.0       0.6844117775318667  0.7425169655696434  0.040226624912169884         1.0000   
         C         C         1.0       0.6736436517983347  0.7360168900773861  0.010097521422084199         1.0000   
         C         C         1.0       0.6372770214103521  0.6933972259790037  0.9994879176896067 1.0000   
         C         C         1.0       0.6154637471960277  0.6550914155702118  0.01716048565659789          1.0000   
         C         C         1.0       0.62255356220312    0.661976604991289   0.0463090226556373 1.0000   
         C         C         1.0       0.7294400767667665  0.7892530534239859  0.05370097248024308          1.0000   
         C         C         1.0       0.7713209718741331  0.7810121855256248  0.04714059823847205          1.0000   
         C         C         1.0       0.8015435132889288  0.7971406317164056  0.022099200341046954         1.0000   
         C         C         1.0       0.8355304591051138  0.7894906781156834  0.017484124609970175         1.0000   
         C         C         1.0       0.8403678074510647  0.7622586259375395  0.035597224435254704         1.0000   
         C         C         1.0       0.8155253538667018  0.7497024128211862  0.061310528310940304         1.0000   
         C         C         1.0       0.7818448897815398  0.7596171045449506  0.06827775419437265          1.0000   
         C         C         1.0       0.7027417451568269  0.8355638878241787  0.02599925906958589          1.0000   
         C         C         1.0       0.7119499175016498  0.8683892137120848  0.005243321678692681         1.0000   
         C         C         1.0       0.7602302080617158  0.9055953788629287  0.9998276449326007 1.0000   
         C         C         1.0       0.7957980644745452  0.9130203151275534  0.019284980060920942         1.0000   
         C         C         1.0       0.7862625984384239  0.8772981605840807  0.036537815505967464         1.0000   
         C         C         1.0       0.7398601612750481  0.8349063751548715  0.03772952112152206          1.0000   
         C         C         1.0       0.7754516624387753  0.9351328579776923  0.9707240098235541 1.0000   
         C         C         1.0       0.8204881041631776  0.8563676053224648  0.924682289376942  1.0000   
         C         C         1.0       0.7714163773069344  0.8363779504423624  0.9284589759465836 1.0000   
         C         C         1.0       0.7551095768282455  0.8630315573807646  0.9392484484632205 1.0000   
         C         C         1.0       0.791209343295095   0.9081206056415939  0.9517041504683801 1.0000   
         C         C         1.0       0.8423032889676854  0.9274678278077556  0.949074910759027  1.0000   
         C         C         1.0       0.8558343858547852  0.9009082294486689  0.9349958323339213 1.0000   
         C         C         1.0       0.8124572937194207  0.990338296415643   0.9723901149679559 1.0000   
         C         C         1.0       0.8266801371857976  0.014037358641811437         0.9988775380091468 1.0000   
         C         C         1.0       0.8680666364598816  0.06058305507078399           0.9999860975033599 1.0000   
         C         C         1.0       0.8953734094258873  0.08276671756013809           0.9743339902222049 1.0000   
         C         C         1.0       0.8808913784686476  0.0588373028093776  0.9484845310618691 1.0000   
         C         C         1.0       0.8387128994491458  0.014782259666237474         0.947712594802438  1.0000   
         C         C         1.0       0.7225247678241292  0.9293309082319595  0.9279216860545323 1.0000   
         C         C         1.0       0.6865129983196183  0.9327880210839967  0.9171739369936539 1.0000   
         C         C         1.0       0.6621286764111814  0.944732037951595   0.93445036796132   1.0000   
         C         C         1.0       0.671065405265907   0.9507636889662937  0.9639499607580738 1.0000   
         C         C         1.0       0.7084026687495903  0.9497250424563923  0.9752248238779476 1.0000   
         C         C         1.0       0.7330072801414963  0.9365082105578861  0.958187131389369  1.0000   
         H         H         1.0       0.8428483808685208  0.7860257638892839  0.6577080860431671 1.0000   
         H         H         1.0       0.691541109272998   0.7630511204913134  0.9923446336322659 1.0000   
         H         H         1.0       0.6340344311036777  0.6904043529394016  0.9757649624667534 1.0000   
         H         H         1.0       0.8279435886923691  0.7150990242459271  0.6760763453872615 1.0000   
         H         H         1.0       0.7932804490201333  0.8125574807578261  0.004867183576325651         1.0000   
         H         H         1.0       0.8550101570698246  0.8020502895781338  0.9957033542003322 1.0000   
         H         H         1.0       0.8159244757930634  0.7275019050776605  0.07740927796918484          1.0000   
         H         H         1.0       0.756512091540368   0.7438328967125099  0.08759323134412678          1.0000   
         H         H         1.0       0.6651317620014505  0.8027072245829572  0.02798308157883156          1.0000   
         H         H         1.0       0.6834940087227425  0.8567492693195201  0.9879627409336961 1.0000   
         H         H         1.0       0.833649768321525   0.9433982050992284  0.017938806424138365         1.0000   
         H         H         1.0       0.8175730880552896  0.8837651668422107  0.04828927875358091          1.0000   
         H         H         1.0       0.7474410254946401  0.8014658070017123  0.9232296100040522 1.0000   
         H         H         1.0       0.7175259266932724  0.8469632499623273  0.9429501757429626 1.0000   
         H         H         1.0       0.8675281680466559  0.9604154324702918  0.9604281993670122 1.0000   
         H         H         1.0       0.8926324293728684  0.9158005705044776  0.9332483829216984 1.0000   
         H         H         1.0       0.8063113072794785  0.0028797059475198505        0.01840374373305842          1.0000   
         H         H         1.0       0.8788685825641797  0.07545421325196533           0.021503164580374934         1.0000   
         H         H         1.0       0.8986625547358843  0.07597787594563532           0.928386523147133  1.0000   
         H         H         1.0       0.8260663506690746  0.9957618023411292  0.9275292759642939 1.0000   
         H         H         1.0       0.7450086606860248  0.9239724096435997  0.9130660816239491 1.0000   
         H         H         1.0       0.6859306368425202  0.9355377822267642  0.8933036395622672 1.0000   
         H         H         1.0       0.6476206208375185  0.9565757556570949  0.9789778119142175 1.0000   
         H         H         1.0       0.7175511173185369  0.9599717937317077  0.998831168730253  1.0000   
         C         C         1.0       0.2349753100148936  0.47549612913089684           0.0902430364788902 1.0000   
         C         C         1.0       0.23578651554868538           0.43968440970956413          0.09988185684244066          1.0000   
         C         C         1.0       0.280087057371568   0.445469033540774   0.1048410410114089 1.0000   
         C         C         1.0       0.3252484592628653  0.48644108519332396           0.09491195061745872          1.0000   
         C         C         1.0       0.322444300331191   0.5224491490670982  0.08424182208297015          1.0000   
         C         C         1.0       0.27820353684130034           0.5162964495533822 0.0833642954452738 1.0000   
         H         H         1.0       0.2017987888357177  0.40838373243197373           0.10611105141583632          1.0000   
         H         H         1.0       0.27997298344817234           0.41705386614221235          0.11388893370129183          1.0000   
         H         H         1.0       0.35437292618540894           0.5562014149867239 0.07834805833239766          1.0000   
         H         H         1.0       0.2774472342323463  0.5452344690722046  0.07643496286927576          1.0000   
         C         C         1.0       0.4098085549185053  0.5314277410747626  0.048404957873250165         1.0000   
         C         C         1.0       0.4200944077297354  0.5212462060724768  0.0753452795739622 1.0000   
         C         C         1.0       0.4658028537438568  0.5316230018377037  0.07801105949056608          1.0000   
         C         C         1.0       0.6668934740238146  0.5695015024569325  0.6750168038147224 1.0000   
         C         C         1.0       0.4904024557164423  0.5596445238998057  0.02896632602940552          1.0000   
         C         C         1.0       0.4447159512378688  0.5488086826257346  0.025354946036894033         1.0000   
         C         C         1.0       0.377002985897307   0.4927380630765469  0.10022810213813726          1.0000   
         C         C         1.0       0.3708455150911304  0.4446038226392833  0.09934983029928723          1.0000   
         C         C         1.0       0.5134089819618245  0.44841005038428133           0.6424683043833733 1.0000   
         C         C         1.0       0.49917942694797157           0.40335002495825284          0.6369448223760991 1.0000   
         C         C         1.0       0.3572502588544363  0.3593978228469942  0.09667806952552138          1.0000   
         C         C         1.0       0.3357002279740028  0.37038256615600224           0.07546605195716793          1.0000   
         C         C         1.0       0.34190678725516105           0.4123348070453198 0.07736296436918311          1.0000   
         C         C         1.0       0.5425491839244955  0.575292692040149   0.6729365420459628 1.0000   
         C         C         1.0       0.5104733556213633  0.5829116302370416  0.6884926246106202 1.0000   
         C         C         1.0       0.46103048511671535           0.5583564087809199 0.683054375358564  1.0000   
         C         C         1.0       0.44461255403533945           0.5282405838658143 0.6600454701101914 1.0000   
         C         C         1.0       0.4748455908123083  0.5186730790617968  0.6455530401349069 1.0000   
         C         C         1.0       0.39404384533175085           0.5189280837681153 0.13138497932697768          1.0000   
         C         C         1.0       0.42399874524635855           0.5655950989105052 0.7021242006714357 1.0000   
         C         C         1.0       0.36570179639790196           0.42513658725263376          0.728038685584823  1.0000   
         C         C         1.0       0.4051957524256678  0.4626126069994645  0.7425271521682938 1.0000   
         C         C         1.0       0.4172571563351144  0.5069361060734485  0.7387876201258538 1.0000   
         C         C         1.0       0.3931941561048588  0.5156041361130586  0.7185293008255541 1.0000   
         C         C         1.0       0.3500788137932987  0.47669937053517936           0.7052357424351147 1.0000   
         C         C         1.0       0.33541005077323227           0.4317133062737291 0.7120864674310152 1.0000   
         C         C         1.0       0.396676647568584   0.5796695852673214  0.682985665310378  1.0000   
         C         C         1.0       0.41687546150563426           0.6020364667414826 0.6563233054617194 1.0000   
         C         C         1.0       0.3987590230310284  0.6200609361767968  0.640060825494351  1.0000   
         C         C         1.0       0.3609445458718528  0.623691086371446   0.6520813501242771 1.0000   
         C         C         1.0       0.33803596332416147           0.5982888932354022 0.6778365326708906 1.0000   
         C         C         1.0       0.351304373213994   0.5727265343151566  0.6912299390161429 1.0000   
         C         C         1.0       0.42558690475716765           0.6029984942983677 0.7541445525324894 1.0000   
         C         C         1.0       0.44458288123995443           0.639272920233936  0.773453282072766  1.0000   
         C         C         1.0       0.4821509134237342  0.682383955927496   0.7651195933210247 1.0000   
         C         C         1.0       0.5028775896705752  0.6911330058879969  0.7375370256481473 1.0000   
         C         C         1.0       0.4851496030276745  0.6542967085906956  0.7175167106756548 1.0000   
         C         C         1.0       0.44582629327531226           0.6096438253403378 0.7254305812294239 1.0000   
         H         H         1.0       0.3733821274359213  0.5176847186648069  0.040150954552150564         1.0000   
         H         H         1.0       0.5927224634963563  0.538474754507952   0.6833806322208693 1.0000   
         H         H         1.0       0.6796906179813718  0.5769888671357689  0.698056916153871  1.0000   
         H         H         1.0       0.4319933842381211  0.5523357092890367  0.004348231661174706         1.0000   
         H         H         1.0       0.5130988988561019  0.457811836972971   0.665419914881374  1.0000   
         H         H         1.0       0.48635247563859396           0.38062453868767443          0.6574037824155663 1.0000   
         H         H         1.0       0.3137978188535165  0.3459553094513117  0.057347157165340557         1.0000   
         H         H         1.0       0.32915190466625804           0.42373554986518513          0.059585869136646874         1.0000   
         H         H         1.0       0.5809338161096231  0.596280678607197   0.677413772934867  1.0000   
         H         H         1.0       0.5275773341470863  0.609411066014893   0.7056148021959552 1.0000   
         H         H         1.0       0.4065262465189407  0.5098650032149797  0.6567387942799674 1.0000   
         H         H         1.0       0.32647017005623813           0.4626519002194487 0.1517960534518985 1.0000   
         H         H         1.0       0.42773987684452247           0.4589158743276374 0.7583673046658532 1.0000   
         H         H         1.0       0.4476689644975832  0.535552187126517   0.7509204678365546 1.0000   
         H         H         1.0       0.3343614502924173  0.4836178995617058  0.6892225465525152 1.0000   
         H         H         1.0       0.3043721969467328  0.40064138639869246           0.70061093557146   1.0000   
         H         H         1.0       0.4525384735200361  0.6101510953250238  0.6499991257034281 1.0000   
         H         H         1.0       0.42072229282912604           0.6411405314306258 0.6203434385849642 1.0000   
         H         H         1.0       0.30645917565634034           0.5993125653536764 0.685631271219483  1.0000   
         H         H         1.0       0.333720380085126   0.5593580033897848  0.7121694613645644 1.0000   
         H         H         1.0       0.3936378758337199  0.5696736223261728  0.7609518695351196 1.0000   
         H         H         1.0       0.43028935451263406           0.6344218231222947 0.7953430591233503 1.0000   
         H         H         1.0       0.5322459392658263  0.7241543353715354  0.7291966295903455 1.0000   
         H         H         1.0       0.5033996745646208  0.6601106158079836  0.6954120287880731 1.0000   
         C         C         1.0       0.13806762723872246           0.35322642869763005          0.5901887102971604 1.0000   
         C         C         1.0       0.17283761563611688           0.39149105116672217          0.60618344194914   1.0000   
         C         C         1.0       0.17379996324982594           0.43169053169674837          0.6089595524721739 1.0000   
         C         C         1.0       0.14211253567998616           0.4350849354883429 0.591556692155759  1.0000   
         C         C         1.0       0.10768851556354697           0.3970198131694668 0.5753849028961863 1.0000   
         C         C         1.0       0.10603617894780903           0.35709583894695723          0.5747402625337459 1.0000   
         H         H         1.0       0.19318860078504985           0.3861721929143259 0.6218168493755786 1.0000   
         H         H         1.0       0.19933134407722153           0.4601466410505663 0.6242820404758661 1.0000   
         H         H         1.0       0.08180235874577102           0.3986999198642436 0.5610070411246975 1.0000   
         H         H         1.0       0.07942898236079521           0.3293396361461604 0.5609361718109953 1.0000   
         C         C         1.0       0.12442334068747929           0.4957817253476012 0.5474247843866236 1.0000   
         C         C         1.0       0.11275385076269084           0.4879116731424499 0.5774772387341579 1.0000   
         C         C         1.0       0.07859361004613774           0.4964234004255522 0.5875995024771407 1.0000   
         C         C         1.0       0.05629145682436043           0.5082461219051034 0.5691500718759864 1.0000   
         C         C         1.0       0.06649614066713916           0.5150149324338587 0.5401333236975728 1.0000   
         C         C         1.0       0.10524169199258204           0.5111848393076346 0.52997035639823   1.0000   
         C         C         1.0       0.1402385427093391  0.4779503738716506  0.5992294114347687 1.0000   
         C         C         1.0       0.19134044209771672           0.5250890784270337 0.5977318570427763 1.0000   
         C         C         1.0       0.20073125888713284           0.5669412694421189 0.6077471138968795 1.0000   
         C         C         1.0       0.24597484135580286           0.6110566956784451 0.6072507040774588 1.0000   
         C         C         1.0       0.28658833992216814           0.612480752497286  0.5980059797696003 1.0000   
         C         C         1.0       0.27853434336594096           0.571765770620602  0.5855918572782568 1.0000   
         C         C         1.0       0.23096157725332955           0.5318994261614254 0.5825555593619594 1.0000   
         C         C         1.0       0.06675552333587587           0.4260712006291175 0.6334392123784721 1.0000   
         C         C         1.0       0.042347602455162336          0.41065514400929565          0.659388063302954  1.0000   
         C         C         1.0       0.06359942140342767           0.43239181850315017          0.6851382064864148 1.0000   
         C         C         1.0       0.11297733995236636           0.4690040248375576 0.6828282402627546 1.0000   
         C         C         1.0       0.13857548452007173           0.4852522157622494 0.6572378586537683 1.0000   
         C         C         1.0       0.11499402144044968           0.4641418607797931 0.632187445829009  1.0000   
         C         C         1.0       0.03870441031680927           0.4140029528061216 0.717108912014708  1.0000   
         C         C         1.0       0.05583652968023922           0.5201759524628943 0.7785945135031657 1.0000   
         C         C         1.0       0.05458611263249624           0.5259511459917057 0.7488629248892241 1.0000   
         C         C         1.0       0.04956018633708004           0.4929748139199368 0.7287593920345243 1.0000   
         C         C         1.0       0.047461867052761564          0.4554912424885607 0.7383691911026835 1.0000   
         C         C         1.0       0.0473946401138412  0.4495777456462649  0.767672218712958  1.0000   
         C         C         1.0       0.051255712725414515          0.4807542439119418 0.7883317157787126 1.0000   
         C         C         1.0       0.0662766880736867  0.39037994654345615           0.7245421899608437 1.0000   
         C         C         1.0       0.04987265211832659           0.3480958101532401 0.7098580778848005 1.0000   
         C         C         1.0       0.07235087345059865           0.3259964380194159 0.7126566751377518 1.0000   
         C         C         1.0       0.10894045261663732           0.3438030167936866 0.733897628658874  1.0000   
         C         C         1.0       0.12815795627356552           0.38574512314268933          0.7473754320541621 1.0000   
         C         C         1.0       0.10763071611882236           0.4095715692065412 0.7426829076008307 1.0000   
         C         C         1.0       0.9569946235549999  0.33913332351983255           0.7385107160451692 1.0000   
         C         C         1.0       0.9086614413793342  0.3117710490922743  0.7442142200784482 1.0000   
         C         C         1.0       0.8783134023737904  0.32226395201172775           0.7326709464786002 1.0000   
         C         C         1.0       0.8975710418022556  0.3574228398543264  0.7128092350685651 1.0000   
         C         C         1.0       0.9475616418265508  0.38360330283172034           0.7050381709730597 1.0000   
         C         C         1.0       0.9787337639143663  0.3770969955073705  0.7192201733151933 1.0000   
         H         H         1.0       0.14991702283369412           0.48948232786574886          0.5333167768912864 1.0000   
         H         H         1.0       0.07044816488404804           0.4945306464509152 0.6108938512918963 1.0000   
         H         H         1.0       0.02992124815342656           0.513022322784969  0.5807329657784568 1.0000   
         H         H         1.0       0.11731023166480203           0.5175257168878511 0.5069885646789685 1.0000   
         H         H         1.0       0.17027637715078736           0.5661152126818473 0.6172089671396844 1.0000   
         H         H         1.0       0.24876158280707433           0.6424891826061477 0.6147480225874279 1.0000   
         H         H         1.0       0.3093270131805061  0.5711483619994274  0.5772866877344912 1.0000   
         H         H         1.0       0.23323756747677682           0.504273496799393  0.573303932904209  1.0000   
         H         H         1.0       0.04945992195318416           0.40436763258968583          0.6144472872499556 1.0000   
         H         H         1.0       0.005035547325081158          0.3798837269315724 0.6606209371853559 1.0000   
         H         H         1.0       0.13511524530281216           0.48104016964938956          0.702510655087818  1.0000   
         H         H         1.0       0.17704229296914664           0.5096303866960528 0.6575534813486066 1.0000   
         H         H         1.0       0.058376988317704104          0.5572973206967494 0.7427919608095346 1.0000   
         H         H         1.0       0.04444499976839311           0.4948046145045397 0.7063660152275889 1.0000   
         H         H         1.0       0.03796187772346471           0.41573754564525756          0.774112000634232  1.0000   
         H         H         1.0       0.06202330218224491           0.47875659402928006          0.8106386080718561 1.0000   
         H         H         1.0       0.016429473813814877          0.33130748663385345          0.697206418627713  1.0000   
         H         H         1.0       0.0506689941404459  0.2897078825729163  0.7067242943724619 1.0000   
         H         H         1.0       0.15935449122933631           0.4041799843773128 0.7609522578015548 1.0000   
         H         H         1.0       0.12261229621596126           0.4437997803455303 0.7506368492172626 1.0000   
         H         H         1.0       0.9795917849680906  0.33249631555471504           0.7537555610230299 1.0000   
         H         H         1.0       0.8955579105328434  0.28644614841263766           0.7605926202049739 1.0000   
         H         H         1.0       0.8739662726463384  0.3654721939878379  0.7026028924049723 1.0000   
         H         H         1.0       0.9631542320144271  0.41359850646582735           0.6891558040461452 1.0000   
         C         C         1.0       0.5829528841073898  0.39987238376079964           0.9634144374707708 1.0000   
         C         C         1.0       0.5956238842674348  0.3800766477124506  0.942719154869079  1.0000   
         C         C         1.0       0.5791507744165189  0.33388153878186855           0.9445352781387898 1.0000   
         C         C         1.0       0.5417925263967273  0.30380925830090105           0.9639716514129272 1.0000   
         C         C         1.0       0.5225941498613937  0.32358820711860653           0.9814254023063237 1.0000   
         C         C         1.0       0.5453964291198159  0.37202547186590523           0.9835974575830505 1.0000   
         H         H         1.0       0.626907966493273   0.40145118029926546           0.9278039692708924 1.0000   
         H         H         1.0       0.592495071149214   0.3214323072928664  0.9289408000085224 1.0000   
         H         H         1.0       0.4905992734066297  0.302629614590776   0.9962246888356775 1.0000   
         H         H         1.0       0.5338789238886645  0.38679119011514396           0.9979841156267368 1.0000   
         C         C         1.0       0.6022834493199473  0.2643219825731737  0.9704751271950138 1.0000   
         C         C         1.0       0.5536824137120642  0.233166125690243   0.9612852240892759 1.0000   
         C         C         1.0       0.5404969756285957  0.19105836403435883           0.9489195592590364 1.0000   
         C         C         1.0       0.5738230843982346  0.17871355849489384           0.9478315616562393 1.0000   
         C         C         1.0       0.6224662222502227  0.21161758795827826           0.9550393303829098 1.0000   
         C         C         1.0       0.6361384207988265  0.25364901173611515           0.9674804323549897 1.0000   
         C         C         1.0       0.5168952146948417  0.24800174845219436           0.9615313335596068 1.0000   
         C         C         1.0       0.48500187054647603           0.2377084730097473 0.9327436354284273 1.0000   
         C         C         1.0       0.4389927556546268  0.23219914934340513           0.9333838083982611 1.0000   
         C         C         1.0       0.40458037639955347           0.21065751376993974          0.9105674055739903 1.0000   
         C         C         1.0       0.41868352414105614           0.19415067800616875          0.8886991084342821 1.0000   
         C         C         1.0       0.46582335471505965           0.2059724272772754 0.8845881989053863 1.0000   
         C         C         1.0       0.4991024542590806  0.22832407355928022           0.905447887697645  1.0000   
         C         C         1.0       0.44004401075477567           0.1746683460450843 0.9853394718340712 1.0000   
         C         C         1.0       0.40997759660145394           0.1493438645717114 0.009228929635131333         1.0000   
         C         C         1.0       0.4267145906423477  0.16500412375518234           0.037952486447348166         1.0000   
         C         C         1.0       0.47515735298944345           0.2027740056408908 0.040781859183500746         1.0000   
         C         C         1.0       0.5008638346458602  0.23164852969193056           0.017035530457182535         1.0000   
         C         C         1.0       0.48350116782533226           0.21813313314690216          0.9885295630387686 1.0000   
         C         C         1.0       0.39016364978033274           0.1468104582786981 0.06661478414142685          1.0000   
         C         C         1.0       0.3749049394070496  0.028956961663355145         0.6143099612686884 1.0000   
         C         C         1.0       0.39931436928154646           0.05316665834529588          0.638248518094366  1.0000   
         C         C         1.0       0.44324804021085007           0.09689404423015091          0.6364267141131985 1.0000   
         C         C         1.0       0.3413461027905373  0.09845900760880032           0.06034895866464862          1.0000   
         C         C         1.0       0.34211391352687515           0.06102513607887117          0.049195097585203795         1.0000   
         C         C         1.0       0.30014065058323874           0.01773890827553659          0.04666762562786908          1.0000   
         C         C         1.0       0.38474365058271653           0.1896029619064597 0.06847887378951745          1.0000   
         C         C         1.0       0.4831410358210628  0.21439136841479373           0.6386858592347262 1.0000   
         C         C         1.0       0.46574509952058757           0.24125226245459866          0.6428171060442647 1.0000   
         C         C         1.0       0.4501816055410233  0.2529677027241352  0.6197105742553694 1.0000   
         C         C         1.0       0.3516093062414511  0.2295360949474158  0.049183182765388356         1.0000   
         C         C         1.0       0.3565335011867325  0.19257315464101266           0.048720368906690625         1.0000   
         C         C         1.0       0.44653952709630385           0.1289853429045076 0.08946766585256061          1.0000   
         C         C         1.0       0.6226869688115811  0.2616233594271404  0.6505326760419299 1.0000   
         C         C         1.0       0.6222041829847313  0.23579666174290706           0.6716721455779977 1.0000   
         C         C         1.0       0.5919993442779302  0.18858023028398674           0.6695067362102262 1.0000   
         C         C         1.0       0.560903923804795   0.1682054745207523  0.6460885646015989 1.0000   
         C         C         1.0       0.4101580794124601  0.13548498658164887           0.09346625165310884          1.0000   
         H         H         1.0       0.6102384139889195  0.2938248549828617  0.9832957475690123 1.0000   
         H         H         1.0       0.5029477786896039  0.16453699902294638           0.9431235868930324 1.0000   
         H         H         1.0       0.5603886559028743  0.1451213505000227  0.9383059016883765 1.0000   
         H         H         1.0       0.6733018321456359  0.2832625208591798  0.9732647272141394 1.0000   
         H         H         1.0       0.42780895571304517           0.24011638113219683          0.9539859077690076 1.0000   
         H         H         1.0       0.36724767550266146           0.1997121691567304 0.9135860283041086 1.0000   
         H         H         1.0       0.4751590313677531  0.19510721763182365           0.8647613228779755 1.0000   
         H         H         1.0       0.5362438434471684  0.23450294749382175           0.9024354284144469 1.0000   
         H         H         1.0       0.42498574829136865           0.15766107768498028          0.9637112618187854 1.0000   
         H         H         1.0       0.3735600591972025  0.12086440333483117           0.004566047458004041         1.0000   
         H         H         1.0       0.4883471136182648  0.21655228984312397           0.062406836755992456         1.0000   
         H         H         1.0       0.5392846937451656  0.2639728245738207  0.020340879413466295         1.0000   
         H         H         1.0       0.3823593400983683  0.03454974752079165           0.6586169760552616 1.0000   
         H         H         1.0       0.45905403253409893           0.11488174423131836          0.6565767721524932 1.0000   
         H         H         1.0       0.37594587847301464           0.06547967375554609          0.04449924951930684          1.0000   
         H         H         1.0       0.3021574682299521  0.9902732009832342  0.03602684607879425          1.0000   
         H         H         1.0       0.493262197893965   0.20191317042793366           0.6573581198115522 1.0000   
         H         H         1.0       0.4642626901091147  0.25225324243741193           0.66425170729042   1.0000   
         H         H         1.0       0.3356120863854374  0.234649347495273   0.031883330471140114         1.0000   
         H         H         1.0       0.335878043088362   0.16275204635463575           0.033085247013578956         1.0000   
         H         H         1.0       0.4650787856392299  0.13450806682093294           0.06899710594688879          1.0000   
         H         H         1.0       0.643022212399274   0.2988084141115815  0.6537966799127457 1.0000   
         H         H         1.0       0.5893887161626731  0.16478463631496013           0.6855924094484741 1.0000   
         H         H         1.0       0.539464104808462   0.13064924950915016           0.6427601483158911 1.0000   
         C         C         1.0       0.9573609869857507  0.37212137613413104           0.06487133508309939          1.0000   
         C         C         1.0       0.985557794116648   0.3791845313379643  0.03944615657314743          1.0000   
         C         C         1.0       0.9620068920040072  0.34860367219722177           0.016990334595315293         1.0000   
         C         C         1.0       0.9136339530963646  0.3108363710479933  0.017235671599449498         1.0000   
         C         C         1.0       0.8863514268146647  0.3040416093763672  0.043264557178712026         1.0000   
         C         C         1.0       0.910553806703135   0.33274495402714444           0.06748005691572034          1.0000   
         H         H         1.0       0.024747083351605914          0.4056203260926583 0.03789191309415596          1.0000   
         H         H         1.0       0.9840145219595668  0.35388106787249424           0.9968741321412286 1.0000   
         H         H         1.0       0.8497430968894901  0.27290289779197047           0.04542359147471586          1.0000   
         H         H         1.0       0.8881846755522168  0.32274234801277424           0.08603738913582681          1.0000   
         C         C         1.0       0.8056150482011137  0.27221326157947634           0.9955346061401567 1.0000   
         C         C         1.0       0.8278418893843061  0.24955341200492842           0.988828353055722  1.0000   
         C         C         1.0       0.7980866170019636  0.20576354729090918           0.9769930129547565 1.0000   
         C         C         1.0       0.7482577090704748  0.18404229668418176           0.9722997423854892 1.0000   
         C         C         1.0       0.7262048154600417  0.2058078099114084  0.9801442878629885 1.0000   
         C         C         1.0       0.7561164156028889  0.25188808541839747           0.99107592884782   1.0000   
         C         C         1.0       0.8879795977718433  0.27711245920428484           0.9891737092095607 1.0000   
         C         C         1.0       0.9068353742622818  0.24479336016256076           0.9913889572213547 1.0000   
         C         C         1.0       0.9504424538721878  0.2592060463086264  0.9761536307064117 1.0000   
         C         C         1.0       0.9667007284878413  0.23159914964101738           0.978494968069021  1.0000   
         C         C         1.0       0.9422303203897656  0.19178185084732613           0.9954796186038188 1.0000   
         C         C         1.0       0.898898725998745   0.17764557548612672           0.01006413678271123          1.0000   
         C         C         1.0       0.883714448165156   0.20607092585926143           0.00940748341999087          1.0000   
         C         C         1.0       0.8884197422385358  0.2785056432796702  0.9328580471346608 1.0000   
         C         C         1.0       0.8966242665763959  0.29872414083574683           0.9068234137851494 1.0000   
         C         C         1.0       0.9209477219822583  0.3467415025998409  0.9040582820386455 1.0000   
         C         C         1.0       0.9256156054626239  0.37092633273217496           0.9298305161447948 1.0000   
         C         C         1.0       0.917417455455676   0.3497945601132131  0.9568321487454352 1.0000   
         C         C         1.0       0.8999942935491299  0.3035016216370751  0.9578512490861155 1.0000   
         C         C         1.0       0.9493159811320466  0.3713622308001802  0.8738445551317596 1.0000   
         C         C         1.0       0.029628967686368357          0.30507977274106174          0.8652518322319608 1.0000   
         C         C         1.0       0.997039085529943   0.29702589692942544           0.8446327303158805 1.0000   
         C         C         1.0       0.9737963814741388  0.3186659128069277  0.8460112027182825 1.0000   
         C         C         1.0       0.9832398084494072  0.3515366465001988  0.8676595183487089 1.0000   
         C         C         1.0       0.015526604127416466          0.35771455630811916          0.8896174287026215 1.0000   
         C         C         1.0       0.03743771025481624           0.3344857005152801 0.8884081550122017 1.0000   
         C         C         1.0       0.9766575176944874  0.4260126374937257  0.87721664886278   1.0000   
         C         C         1.0       0.9497573135669939  0.44448635782675144           0.8814704214193312 1.0000   
         C         C         1.0       0.9715308155803581  0.49082725949604167           0.8853681027522947 1.0000   
         C         C         1.0       0.021436324106211657          0.5219661372234009 0.8815091087940109 1.0000   
         C         C         1.0       0.04829104647856863           0.504182442485746  0.8757830688156514 1.0000   
         C         C         1.0       0.027857131585206307          0.45830840134882095          0.8754449141609447 1.0000   
         C         C         1.0       0.9348397735822997  0.3848737499203203  0.8200920059727687 1.0000   
         C         C         1.0       0.9048154558011218  0.37446479921583986           0.7970349541223424 1.0000   
         C         C         1.0       0.855683981643274   0.33796018021796614           0.7973507080050686 1.0000   
         C         C         1.0       0.8356262526665409  0.3115823832907012  0.8222041339671186 1.0000   
         C         C         1.0       0.8646727375325611  0.3220848516353611  0.8464282358733607 1.0000   
         C         C         1.0       0.9150757475556327  0.3573802011245162  0.8464794197508775 1.0000   
         H         H         1.0       0.8299345959554089  0.31011622606225603           0.00040160796125499054       1.0000   
         H         H         1.0       0.8155778329866875  0.19085796392592794           0.9665537569856069 1.0000   
         H         H         1.0       0.7243704123679178  0.1492932080155894  0.9648972427843808 1.0000   
         H         H         1.0       0.740758278666047   0.2718738902444353  0.9940462096141598 1.0000   
         H         H         1.0       0.9712883113495299  0.2906193356620766  0.963500190202653  1.0000   
         H         H         1.0       0.9983456267939036  0.24150535934806844           0.9659438299103235 1.0000   
         H         H         1.0       0.8779159814701455  0.14521175679578002           0.021993877524780547         1.0000   
         H         H         1.0       0.84885978905185    0.19794496920842383           0.019615452332381045         1.0000   
         H         H         1.0       0.8763930084105085  0.24249064133113044           0.9372120212346614 1.0000   
         H         H         1.0       0.890001801795694   0.2773987486801056  0.886314225329746  1.0000   
         H         H         1.0       0.9375140984173705  0.407884933097753   0.9291681247778271 1.0000   
         H         H         1.0       0.9226418852489228  0.37023461660372586           0.9766416568194161 1.0000   
         H         H         1.0       0.9887531296978118  0.27399506151982567           0.8262643173661935 1.0000   
         H         H         1.0       0.9465205977742729  0.3082865739347892  0.8288320378471937 1.0000   
         H         H         1.0       0.01827543950140642           0.37655083422282914          0.909541769780655  1.0000   
         H         H         1.0       0.05769396210756428           0.3372258349272731 0.9066947136958524 1.0000   
         H         H         1.0       0.9109283274787718  0.4215156040631275  0.8790193209486782 1.0000   
         H         H         1.0       0.9466796414808448  0.5017244255584302  0.8897878879961699 1.0000   
         H         H         1.0       0.08881094018626912           0.5313513752761378 0.8749426879374597 1.0000   
         H         H         1.0       0.05051306042857462           0.4453970949707187 0.870532569436489  1.0000   
         H         H         1.0       0.9716171471351708  0.4090667878618952  0.8180909793844028 1.0000   
         H         H         1.0       0.924887520662564   0.39771585889028166           0.7798248740400018 1.0000   
         H         H         1.0       0.7971433704533875  0.284965881390016   0.8227174569345488 1.0000   
         H         H         1.0       0.8492996219450598  0.3035685863409982  0.8675916662846265 1.0000   
         C         C         1.0       0.534632243211807   0.9399743860249502  0.7939456477752198 1.0000   
         C         C         1.0       0.4995855816347667  0.9504379930682177  0.7980431506286576 1.0000   
         C         C         1.0       0.49755888228798806           0.9774267874488456 0.778153417769504  1.0000   
         C         C         1.0       0.5304691888926484  0.9995272227855381  0.7563505990201312 1.0000   
         C         C         1.0       0.5687550670932477  0.9954741170998265  0.7548798383482165 1.0000   
         C         C         1.0       0.5731020445913968  0.9679176628758678  0.7732552339621819 1.0000   
         H         H         1.0       0.4713888694752348  0.9307415833668599  0.8160975264383358 1.0000   
         H         H         1.0       0.4648403189675666  0.9757404644680882  0.7775099147331633 1.0000   
         H         H         1.0       0.5994600877184191  0.015888266886107782         0.7384697112018945 1.0000   
         H         H         1.0       0.6052472179276035  0.9658120375795076  0.7741890272758531 1.0000   
         C         C         1.0       0.6094968962856944  0.10138914069040283           0.7337759707778065 1.0000   
         C         C         1.0       0.5709144155728553  0.06774321889625101           0.7167632247446725 1.0000   
         C         C         1.0       0.5768791252541051  0.07670156411088058           0.6873067425366817 1.0000   
         C         C         1.0       0.6204567942608635  0.11047417737720022           0.6749103707784595 1.0000   
         C         C         1.0       0.6596083631570246  0.1423198742235796  0.6918379496743525 1.0000   
         C         C         1.0       0.6532972680006999  0.13699595127093556           0.7215594597083933 1.0000   
         C         C         1.0       0.5198056757733109  0.022833456483545733         0.7301731626717287 1.0000   
         C         C         1.0       0.48924177014515396           0.0451467795639664 0.7348780398941184 1.0000   
         C         C         1.0       0.45821984402202703           0.04024580714206616          0.7130833495805547 1.0000   
         C         C         1.0       0.424147830583454   0.0502665523112753  0.7204360662925853 1.0000   
         C         C         1.0       0.4231232670922278  0.0667108373391645  0.7476244825032013 1.0000   
         C         C         1.0       0.4556335061267305  0.07513662198078452           0.7689376901119876 1.0000   
         C         C         1.0       0.48915906351180083           0.06507979448565093          0.7609788304143343 1.0000   
         C         C         1.0       0.5175356135517106  0.9694495799493977  0.6896437617972863 1.0000   
         C         C         1.0       0.4942301155236013  0.9329096892167931  0.6706375075729716 1.0000   
         C         C         1.0       0.44402874753789623           0.8971045563191181 0.6740737104113474 1.0000   
         C         C         1.0       0.42099240887205674           0.9042871652797934 0.6967802160806426 1.0000   
         C         C         1.0       0.4424705334795856  0.940689406465177   0.7146750874065518 1.0000   
         C         C         1.0       0.49223342901026523           0.976085596845471  0.7106976335713898 1.0000   
         C         C         1.0       0.4161310255945344  0.8526016779462992  0.652538328620115  1.0000   
         C         C         1.0       0.3475307462034812  0.9119278587744396  0.6086924547186452 1.0000   
         C         C         1.0       0.3940402740352947  0.9245675364080507  0.6002010866683647 1.0000   
         C         C         1.0       0.4132368695322856  0.9012894520209644  0.611081638660508  1.0000   
         C         C         1.0       0.3878175925494378  0.8693096695406057  0.6346901585063407 1.0000   
         C         C         1.0       0.3428407599581121  0.8602065057540978  0.6446777016205839 1.0000   
         C         C         1.0       0.32455980270615636           0.8817670868833958 0.6316607704465336 1.0000   
         C         C         1.0       0.3760696176288358  0.8029517880115234  0.6683775564569516 1.0000   
         C         C         1.0       0.37929350449164295           0.7928608817016941 0.6961034726368339 1.0000   
         C         C         1.0       0.3429648294299852  0.7528265037296161  0.7088778967386085 1.0000   
         C         C         1.0       0.3008667876239491  0.7215957908726998  0.6926826545964833 1.0000   
         C         C         1.0       0.30313680781663865           0.7270600727016183 0.6625041400393649 1.0000   
         C         C         1.0       0.34098377301416527           0.7685347903606102 0.6503805106410296 1.0000   
         C         C         1.0       0.4391416611616483  0.8260640629808043  0.6031367910643973 1.0000   
         C         C         1.0       0.4354434924060357  0.9445655390911281  0.05849518646971452          1.0000   
         C         C         1.0       0.4625961297471086  0.9896504669128527  0.06612671309865581          1.0000   
         C         C         1.0       0.51569382844525    0.8321785128539999  0.6282666510366358 1.0000   
         C         C         1.0       0.48534247704269307           0.8404956521009559 0.6449780815022474 1.0000   
         C         C         1.0       0.44818757695526334           0.8400995985635342 0.6327952041392897 1.0000   
         H         H         1.0       0.6123831733023842  0.09889769392358638           0.7576404279455781 1.0000   
         H         H         1.0       0.5472511588885574  0.05345775300215139           0.6726866679648803 1.0000   
         H         H         1.0       0.6249289339455255  0.11055485398557408           0.6512853027154    1.0000   
         H         H         1.0       0.6833359597459906  0.16184887611043086           0.7356178022902443 1.0000   
         H         H         1.0       0.45604804034600915           0.024011730774584183         0.6918702231954066 1.0000   
         H         H         1.0       0.3994080427804957  0.044842044946325155         0.7034613444445154 1.0000   
         H         H         1.0       0.4491001163049242  0.08155171136830484           0.7910976308586002 1.0000   
         H         H         1.0       0.5107445611510955  0.06555446983512736           0.7762493566678288 1.0000   
         H         H         1.0       0.5553440639834883  0.9970961658394063  0.6853768671587323 1.0000   
         H         H         1.0       0.5150586633794976  0.936243430467128   0.65096947641156   1.0000   
         H         H         1.0       0.38203790468743576           0.8799539940446333 0.70026758617298   1.0000   
         H         H         1.0       0.4199540580790557  0.9418059090412643  0.7309898092704953 1.0000   
         H         H         1.0       0.2248894206834471  0.8836524999718103  0.048126284816644604         1.0000   
         H         H         1.0       0.4501178244770766  0.9151191090005072  0.6058524746623197 1.0000   
         H         H         1.0       0.3242257338726232  0.8382987360760299  0.6646821254720606 1.0000   
         H         H         1.0       0.29403297535886436           0.8814479131039608 0.6394000187472482 1.0000   
         H         H         1.0       0.41083261872432286           0.8168942896197591 0.7109730335341401 1.0000   
         H         H         1.0       0.347864837678467   0.7472114683728315  0.7307621275557721 1.0000   
         H         H         1.0       0.2722311512664635  0.7057404072576335  0.6504800157286464 1.0000   
         H         H         1.0       0.3342404753342896  0.7731189291066031  0.6276812370776341 1.0000   
         H         H         1.0       0.37528831854034855           0.875117292919807  0.06429104141799069          1.0000   
         H         H         1.0       0.44766903323903395           0.9342898648395351 0.03978780591763975          1.0000   
         H         H         1.0       0.5455321465720189  0.8362630378982555  0.641600599426475  1.0000   
         H         H         1.0       0.49153762068091356           0.8489135632964749 0.6680736726238165 1.0000   
         C         C         1.0       0.17321942396496992           0.4894090275228202 0.037174775091789014         1.0000   
         C         C         1.0       0.14815585472632956           0.5093319690463003 0.035461828761181424         1.0000   
         C         C         1.0       0.1603396827338569  0.5429118197450767  0.014452312618822516         1.0000   
         C         C         1.0       0.19645381132305026           0.5542086429787956 0.9929187049379118 1.0000   
         C         C         1.0       0.22077558248909204           0.5328199017867453 0.9943410116085521 1.0000   
         C         C         1.0       0.20570013754409336           0.4983723972195515 0.01576896425469787          1.0000   
         H         H         1.0       0.11378156593019191           0.49345969287092895          0.04984507565741825          1.0000   
         H         H         1.0       0.14369088214406064           0.5599079145946672 0.01440430692762118          1.0000   
         H         H         1.0       0.24981372488304784           0.5416654225647607 0.9785710185065296 1.0000   
         H         H         1.0       0.22708527259320485           0.48541306158351843          0.01810206727723518          1.0000   
         C         C         1.0       0.23123748282459644           0.6587071347659677 0.008341371850201007         1.0000   
         C         C         1.0       0.2496438882353048  0.6377595893306832  0.9915714384696392 1.0000   
         C         C         1.0       0.2986129057990185  0.6501878134261493  0.9981918850707883 1.0000   
         C         C         1.0       0.3274159230582697  0.6876065599524243  0.015052069011961766         1.0000   
         C         C         1.0       0.3121790528439328  0.7129121718038987  0.02877809768713968          1.0000   
         C         C         1.0       0.2644195158708848  0.697039993361302   0.026609816202315395         1.0000   
         C         C         1.0       0.21474626373041364           0.5949885433786394 0.9703171123086174 1.0000   
         C         C         1.0       0.16804423312477243           0.5925826569036527 0.9581178686870713 1.0000   
         C         C         1.0       0.12278479637664982           0.5512660380694595 0.9545850894123612 1.0000   
         C         C         1.0       0.08405822544650839           0.5516568556525825 0.9444859750083365 1.0000   
         C         C         1.0       0.09297088239781086           0.5940288927334987 0.9346596569299325 1.0000   
         C         C         1.0       0.14046236710355395           0.6336031424077768 0.9347164385887847 1.0000   
         C         C         1.0       0.17738206122114744           0.6339044055243516 0.947505412609688  1.0000   
         C         C         1.0       0.2835015703159318  0.6413498403085053  0.9282104691132939 1.0000   
         C         C         1.0       0.29924045462404203           0.6422685015511493 0.8998684932419045 1.0000   
         C         C         1.0       0.2786043113820853  0.600554580796834   0.8829241251476786 1.0000   
         C         C         1.0       0.23952698992464644           0.5603573267920894 0.8956662720724525 1.0000   
         C         C         1.0       0.22404623964935758           0.559231279144052  0.924279218771527  1.0000   
         C         C         1.0       0.24654014519142536           0.6009692429884573 0.9408080339126526 1.0000   
         C         C         1.0       0.29067096540803994           0.5990030233489244 0.848885293187125  1.0000   
         C         C         1.0       0.16541561998943904           0.5931476197589663 0.8126249310287439 1.0000   
         C         C         1.0       0.20498205203886047           0.6332062116600454 0.8258144946364412 1.0000   
         C         C         1.0       0.2417892730457629  0.6335457157283491  0.8394447407960627 1.0000   
         C         C         1.0       0.24386982653615277           0.5947614756801832 0.8367174087957838 1.0000   
         C         C         1.0       0.20530089571206087           0.5552020153048882 0.8230225737357301 1.0000   
         C         C         1.0       0.17042897938769486           0.5564957563707332 0.8096738504665375 1.0000   
         C         C         1.0       0.2980708297297586  0.56129248225877    0.8398953868408877 1.0000   
         C         C         1.0       0.3138093444253715  0.5434295534845797  0.8602177605770919 1.0000   
         C         C         1.0       0.3226661439446421  0.5119196505067408  0.8508337104009243 1.0000   
         C         C         1.0       0.31935131807605216           0.4965814544034814 0.822341904318273  1.0000   
         C         C         1.0       0.3048513960509322  0.5146609799947728  0.8017363580434207 1.0000   
         C         C         1.0       0.2958222005503795  0.5479673108233103  0.81012794761098   1.0000   
         C         C         1.0       0.3462673877373511  0.6643156643113416  0.8101769541445982 1.0000   
         C         C         1.0       0.3918101445761526  0.6945429185808989  0.7966196390281259 1.0000   
         C         C         1.0       0.434170552885125   0.7146432117740552  0.8127312120543471 1.0000   
         C         C         1.0       0.4303867896620038  0.6969238792467998  0.8396908938596314 1.0000   
         C         C         1.0       0.3847779634833603  0.6604314299387013  0.8511065855426342 1.0000   
         C         C         1.0       0.34198635159669377           0.6439630297551827 0.8371594171156407 1.0000   
         H         H         1.0       0.1954524021693719  0.6520024672981314  0.006309876360414135         1.0000   
         H         H         1.0       0.31308497800122476           0.6332815193578202 0.9859780133410019 1.0000   
         H         H         1.0       0.36370299952614177           0.6972715064744129 0.01838959263061013          1.0000   
         H         H         1.0       0.2517172403074604  0.7166198464696455  0.04015710980422815          1.0000   
         H         H         1.0       0.11220667195607754           0.5183440539037774 0.9634725542773392 1.0000   
         H         H         1.0       0.04721375196068386           0.5193518515242913 0.9442890919409959 1.0000   
         H         H         1.0       0.15072023900122922           0.6633780312725617 0.9203511875693102 1.0000   
         H         H         1.0       0.21252340516522036           0.6670483454127322 0.9510353767946468 1.0000   
         H         H         1.0       0.2939549881200069  0.6719555377849845  0.9412230497475104 1.0000   
         H         H         1.0       0.3255662873350812  0.6771090867733466  0.8874204546444175 1.0000   
         H         H         1.0       0.21710895632746738           0.5256420157583006 0.8858397119522966 1.0000   
         H         H         1.0       0.19094524860388115           0.5277314979438725 0.9319016437730248 1.0000   
         H         H         1.0       0.20505439486885968           0.6632892416493912 0.827969110237293  1.0000   
         H         H         1.0       0.27500232500181215           0.6667994374454482 0.8465040718564503 1.0000   
         H         H         1.0       0.20126210605412495           0.5231841518260617 0.8194178042706394 1.0000   
         H         H         1.0       0.14581543714730116           0.5275230925138541 0.7948343801917969 1.0000   
         H         H         1.0       0.32049468219600374           0.5537281555403468 0.8831937729763437 1.0000   
         H         H         1.0       0.33791871820301705           0.5006377610378108 0.8658255851253022 1.0000   
         H         H         1.0       0.2983931786775922  0.5009683000616185  0.7794973171851647 1.0000   
         H         H         1.0       0.2817733219388758  0.5590105132753339  0.7928211618964456 1.0000   
         H         H         1.0       0.3142404445479594  0.6554886291095323  0.7997829736103529 1.0000   
         H         H         1.0       0.3977016324379584  0.7120944147789575  0.7753999562085675 1.0000   
         H         H         1.0       0.46066180087837644           0.710668240822338  0.8540882734942916 1.0000   
         H         H         1.0       0.38342708310981977           0.6464185747819139 0.8715069308982043 1.0000   
         C         C         1.0       0.008033185240431173          0.6967768424434263 0.6783543934439024 1.0000   
         C         C         1.0       0.05283405400185348           0.7401800078603078 0.6732493512273358 1.0000   
         C         C         1.0       0.08609168735292583           0.7448617282648149 0.6526919840188206 1.0000   
         C         C         1.0       0.08071542926140096           0.7067092875695821 0.6385903710547162 1.0000   
         C         C         1.0       0.03853859228849177           0.6636544931670616 0.6463404889865303 1.0000   
         C         C         1.0       0.0014738150228588154         0.6590045442055866 0.663204538426613  1.0000   
         H         H         1.0       0.05911821042228271           0.7713916934703594 0.6839210059337437 1.0000   
         H         H         1.0       0.12153525083689853           0.7788529549573507 0.6509334623363275 1.0000   
         H         H         1.0       0.03463810810330137           0.6328880934493857 0.636976918928881  1.0000   
         H         H         1.0       0.9686572496139753  0.6227922109488893  0.6679373528361107 1.0000   
         C         C         1.0       0.059377339756550906          0.6494872412130241 0.5792943232600893 1.0000   
         C         C         1.0       0.10578786512408667           0.6738983154784156 0.5903455163030322 1.0000   
         C         C         1.0       0.1401343334781986  0.6677498702978348  0.5770582282361396 1.0000   
         C         C         1.0       0.1251114928439785  0.6342031740230492  0.5558510465524247 1.0000   
         C         C         1.0       0.07942468956887905           0.6118513476853097 0.5438972887573673 1.0000   
         C         C         1.0       0.045169516475404015          0.6161396204313825 0.5577118801511178 1.0000   
         C         C         1.0       0.12482919308882345           0.7120983116250582 0.6163747324545545 1.0000   
         C         C         1.0       0.15922181727621343           0.7094000861092479 0.6390915593403956 1.0000   
         C         C         1.0       0.19370844035246212           0.7457005925956878 0.6570213171387517 1.0000   
         C         C         1.0       0.21226942211655087           0.7362914512647225 0.6802161427148987 1.0000   
         C         C         1.0       0.1933593779366908  0.6918005904105379  0.6873546885825185 1.0000   
         C         C         1.0       0.157443605076066   0.6557119006144851  0.6718285139355832 1.0000   
         C         C         1.0       0.141704951760667   0.6645648388809902  0.6479965351066901 1.0000   
         C         C         1.0       0.12322003738865983           0.7717062963682783 0.5847494242405423 1.0000   
         C         C         1.0       0.9740734762525265  0.6523319978068253  0.0621548696350156 1.0000   
         C         C         1.0       0.01244786239439133           0.6641608101812602 0.04337106608482544          1.0000   
         C         C         1.0       0.05781185823574053           0.6835108252719312 0.055333394543933156         1.0000   
         C         C         1.0       0.1992981316341813  0.7830149852593338  0.590110450945167  1.0000   
         C         C         1.0       0.1505528485837917  0.7595458526788521  0.5983093374135607 1.0000   
         C         C         1.0       0.005055547100136559          0.6686095202598851 0.009190008682073092         1.0000   
         C         C         1.0       0.1623224865380305  0.7538462160596604  0.9823410638533012 1.0000   
         C         C         1.0       0.13815271057963782           0.7057425998324408 0.9883995003791018 1.0000   
         C         C         1.0       0.08777492612986504           0.6783157976963252 0.9916636824507441 1.0000   
         C         C         1.0       0.057259541039215156          0.6946978681871134 0.9928078189329036 1.0000   
         C         C         1.0       0.08222943534150162           0.7400802592769908 0.981907845852072  1.0000   
         C         C         1.0       0.13294975963877387           0.7697424532442497 0.9789664886117388 1.0000   
         C         C         1.0       0.9825459977215478  0.6995457748571223  0.007660666898178681         1.0000   
         C         C         1.0       0.0020278355303251505         0.7401462662219154 0.024780604606481793         1.0000   
         C         C         1.0       0.9844534634638639  0.766876041002246   0.021468412644062296         1.0000   
         C         C         1.0       0.9438376639128124  0.7494946374629292  0.004743048979906073         1.0000   
         C         C         1.0       0.9252780304443637  0.7098848313924959  0.9879598221472082 1.0000   
         C         C         1.0       0.9433179662162119  0.6847378940144233  0.9902090066141138 1.0000   
         C         C         1.0       0.9790881852563124  0.6231533598529774  0.9616127959583166 1.0000   
         C         C         1.0       0.9489133338689489  0.5831722782365498  0.9443288229734047 1.0000   
         C         C         1.0       0.9110195639540204  0.5421917832138656  0.9571865712771535 1.0000   
         C         C         1.0       0.9064923046241523  0.5393728258617492  0.9878484809487125 1.0000   
         C         C         1.0       0.9364335487286567  0.5784342376392098  0.004489053401147469         1.0000   
         C         C         1.0       0.9760175672028517  0.6203583081367292  0.9924204040197536 1.0000   
         H         H         1.0       0.03654533961294648           0.6577246212822653 0.5884156073118723 1.0000   
         H         H         1.0       0.17842587780812735           0.6865941854288659 0.5838300783979146 1.0000   
         H         H         1.0       0.14970865229608732           0.6267417497996681 0.545900726700673  1.0000   
         H         H         1.0       0.009494928504890865          0.5989986229261733 0.5488715811824683 1.0000   
         H         H         1.0       0.20395081372516222           0.78069007218891   0.6539572579011089 1.0000   
         H         H         1.0       0.24326462842680915           0.7656339655508287 0.6910530157609385 1.0000   
         H         H         1.0       0.13912094403729855           0.6204692691197281 0.6771878400136719 1.0000   
         H         H         1.0       0.11555454393582609           0.6344942532336708 0.6358906018149981 1.0000   
         H         H         1.0       0.08390099767899462           0.7506808029625148 0.5891196716890038 1.0000   
         H         H         1.0       0.938274968963146   0.6401161088083297  0.05532526767612023          1.0000   
         H         H         1.0       0.09453157629462905           0.706870075352031  0.044602488470478985         1.0000   
         H         H         1.0       0.22479215099770444           0.7742642586533084 0.597771330142888  1.0000   
         H         H         1.0       0.16120561493964652           0.6938838352129812 0.9911320221742822 1.0000   
         H         H         1.0       0.0725768557621993  0.642810278290155   0.9995949000729318 1.0000   
         H         H         1.0       0.06053775715879617           0.7541110488775709 0.9794235890131441 1.0000   
         H         H         1.0       0.1528716528965503  0.8087600434571913  0.9788913266049882 1.0000   
         H         H         1.0       0.031804380772029406          0.7501915100100626 0.0397886122001041 1.0000   
         H         H         1.0       0.0015562778431428281         0.8002251533021895 0.03365888765667524          1.0000   
         H         H         1.0       0.891660401639873   0.6947355322836909  0.9749325574230051 1.0000   
         H         H         1.0       0.930000411730336   0.6539480985850253  0.9783971042849006 1.0000   
         H         H         1.0       0.998279985806944   0.6568826711395402  0.9496018763217059 1.0000   
         H         H         1.0       0.9537446475908354  0.5860724124538078  0.9206209880518957 1.0000   
         H         H         1.0       0.8791888433920556  0.5079130633730595  0.001117882642554635         1.0000   
         H         H         1.0       0.9272462069174314  0.5748760657510887  0.027069260835828057         1.0000   
         C         C         1.0       0.5520741902132287  0.4553076761806929  0.9256920957156477 1.0000   
         C         C         1.0       0.5046424259382989  0.418406517892053   0.9178414827497162 1.0000   
         C         C         1.0       0.4910923495342762  0.4143695411027779  0.8898016439362925 1.0000   
         C         C         1.0       0.521601871425682   0.44335750364540294           0.8672370966701475 1.0000   
         C         C         1.0       0.5696386369536489  0.47796001368729274           0.8755082500477548 1.0000   
         C         C         1.0       0.5859243737456085  0.48364176482489024           0.903851819947582  1.0000   
         H         H         1.0       0.4782571403831765  0.39470106851598497           0.9331651160057682 1.0000   
         H         H         1.0       0.45485085142451614           0.3869285582679493 0.8839991524870112 1.0000   
         H         H         1.0       0.5970708699476394  0.5040757894321732  0.8623396320067197 1.0000   
         H         H         1.0       0.6227688713785355  0.5119885260033384  0.9087038555480269 1.0000   
         C         C         1.0       0.5417988426486041  0.5271285018854935  0.828917131440945  1.0000   
         C         C         1.0       0.5256488400423162  0.4850444017024204  0.8157878475568033 1.0000   
         C         C         1.0       0.528021918288732   0.48466509880594094           0.785109498872152  1.0000   
         C         C         1.0       0.5424603319169042  0.5248428061764108  0.7702413417747588 1.0000   
         C         C         1.0       0.5547383434757757  0.5648978301643686  0.784072515444688  1.0000   
         C         C         1.0       0.5550906121630993  0.5660597085240282  0.8144029499164523 1.0000   
         C         C         1.0       0.5003051238128206  0.43807557878980175           0.8351060873464029 1.0000   
         C         C         1.0       0.4444272925889931  0.42593384952119    0.8353934748756044 1.0000   
         C         C         1.0       0.4119930451262175  0.4023420421288329  0.8125411038365694 1.0000   
         C         C         1.0       0.3666852233807205  0.3947503208216701  0.8136689569882218 1.0000   
         C         C         1.0       0.35312079040526845           0.4124627662847048 0.8363451756193074 1.0000   
         C         C         1.0       0.38441532179252413           0.43458431967482564          0.8598274620242049 1.0000   
         C         C         1.0       0.4293223542479197  0.4416418020789954  0.8596593540537337 1.0000   
         C         C         1.0       0.5448944719352966  0.4080171501814045  0.809339507442678  1.0000   
         C         C         1.0       0.5447321575215275  0.3752297439453249  0.7929263833182039 1.0000   
         C         C         1.0       0.5010895108692908  0.33465860497783956           0.7877718628445552 1.0000   
         C         C         1.0       0.4610079980798211  0.31824335114447183           0.807400015716881  1.0000   
         C         C         1.0       0.4607354133548946  0.34958346321280676           0.8269970415912807 1.0000   
         C         C         1.0       0.5008988929308     0.3965513235792877  0.8238533513662141 1.0000   
         C         C         1.0       0.4914959551904258  0.3021552942941326  0.7603194394410383 1.0000   
         C         C         1.0       0.42927238960584796           0.3633953205857692 0.7161131297258151 1.0000   
         C         C         1.0       0.48061063230291096           0.38688546106642624          0.7161604745815521 1.0000   
         C         C         1.0       0.5007795578825723  0.36681473582573576           0.7287268515253728 1.0000   
         C         C         1.0       0.46945178063049253           0.32200192175624187          0.7402318164487017 1.0000   
         C         C         1.0       0.41895501212991015           0.29701387288401504          0.736788242578828  1.0000   
         C         C         1.0       0.3993231365625482  0.31878890121709397           0.725426773846779  1.0000   
         C         C         1.0       0.46090972925318713           0.24670452893822853          0.7670567945465414 1.0000   
         C         C         1.0       0.4721949012218343  0.23027495426800906           0.7904093523093983 1.0000   
         C         C         1.0       0.4504201760201159  0.18345838830111164           0.7948795863488086 1.0000   
         C         C         1.0       0.4142544516293254  0.15079365305897596           0.7767469919905583 1.0000   
         C         C         1.0       0.4043795363139215  0.1670756955393666  0.753537710035129  1.0000   
         C         C         1.0       0.4256774808808536  0.21261094332053293           0.7481052552518348 1.0000   
         C         C         1.0       0.5413028630699872  0.29798255237731497           0.7156730943101959 1.0000   
         C         C         1.0       0.5803053760421553  0.2964682534118244  0.7042671934463569 1.0000   
         C         C         1.0       0.6148737263078546  0.30140205479827953           0.7221126551605898 1.0000   
         C         C         1.0       0.6112994241776765  0.3111863074810763  0.7518124453194862 1.0000   
         C         C         1.0       0.5746963642076491  0.31443274917643943           0.7633267679204248 1.0000   
         C         C         1.0       0.5379489337875151  0.3074766210927631  0.7452593687006057 1.0000   
         H         H         1.0       0.5397051330274674  0.5298017991435571  0.8517676682708749 1.0000   
         H         H         1.0       0.5150256332798571  0.451799302587449   0.7749200040129237 1.0000   
         H         H         1.0       0.5442055809866417  0.5220203717210374  0.7470787049675977 1.0000   
         H         H         1.0       0.5635216886163423  0.5969121883218572  0.8255179942804509 1.0000   
         H         H         1.0       0.4269338845016552  0.3950690503455252  0.7931755928868802 1.0000   
         H         H         1.0       0.3489740797264862  0.3847089721415456  0.792868660497207  1.0000   
         H         H         1.0       0.36669443200117363           0.44577908645245096          0.8768951997939458 1.0000   
         H         H         1.0       0.45683334001526016           0.4662836078908039 0.8749099229155952 1.0000   
         H         H         1.0       0.5789764221821043  0.4420981188335611  0.8124870961721683 1.0000   
         H         H         1.0       0.5764413046419603  0.38491752323275324           0.781069271949882  1.0000   
         H         H         1.0       0.42839472843015375           0.2823029921794395 0.806922090215465  1.0000   
         H         H         1.0       0.42800229707203924           0.3367408082678123 0.8419674258099465 1.0000   
         H         H         1.0       0.5021740933345432  0.42387435438875903           0.7096963358185727 1.0000   
         H         H         1.0       0.5412825022916788  0.38319254068984415           0.7305622579064536 1.0000   
         H         H         1.0       0.38917047888128725           0.2624731444907945 0.7462880907386565 1.0000   
         H         H         1.0       0.36100900175633355           0.3038019589906476 0.7243404144478636 1.0000   
         H         H         1.0       0.5000605277321976  0.2536859558616401  0.8049714556181197 1.0000   
         H         H         1.0       0.4642209445886631  0.1690878419714443  0.8095389358644246 1.0000   
         H         H         1.0       0.3725163788465158  0.13917182232092706           0.7411379421476253 1.0000   
         H         H         1.0       0.41554968882688104           0.22134560863574546          0.7292669658572656 1.0000   
         H         H         1.0       0.5098037475994983  0.2887516129321881  0.7016469753410961 1.0000   
         H         H         1.0       0.5787904389449502  0.28673891390987555           0.6805167314705307 1.0000   
         H         H         1.0       0.638143872729227   0.3169777489682997  0.7691135414125112 1.0000   
         H         H         1.0       0.570490613604731   0.31094009214357116           0.7859476269532037 1.0000   
         C         C         1.0       0.3334003786395571  0.4644347520546959  0.8125830023983951 1.0000   
         C         C         1.0       0.31204371983841933           0.41740032249694886          0.8304741573823865 1.0000   
         H         H         1.0       0.37209157980638335           0.48688338796506236          0.8141433984351512 1.0000   
         H         H         1.0       0.32554526561717356           0.4540877606935811 0.7892010249236322 1.0000   
         H         H         1.0       0.2840919327321176  0.3869454516149427  0.8178681841539673 1.0000   
         H         H         1.0       0.294578768119626   0.41884131626714816           0.8498448650813407 1.0000   
         C         C         1.0       0.2101552027648443  0.6805364957715082  0.7121395870271177 1.0000   
         C         C         1.0       0.25429662750790205           0.6773574273851747 0.7073411175043706 1.0000   
         H         H         1.0       0.2218816316398554  0.7050333967305861  0.7290536925752187 1.0000   
         H         H         1.0       0.1784412838220796  0.6489108577519692  0.7228306958685261 1.0000   
         H         H         1.0       0.263212983645796   0.6653578974482227  0.7258741235103255 1.0000   
         H         H         1.0       0.24086616972958824           0.6463196523552694 0.6923665205824187 1.0000   
         C         C         1.0       0.3754838500633048  0.06552313107429808           0.7559054852544144 1.0000   
         C         C         1.0       0.3794342327819324  0.09780729893858586           0.7824897441457251 1.0000   
         H         H         1.0       0.3657794676824254  0.07463730831240478           0.7368956904636818 1.0000   
         H         H         1.0       0.34357830954736507           0.029344212847623122         0.7614212835434685 1.0000   
         H         H         1.0       0.390316093418419   0.08954959469935608           0.8016521296156123 1.0000   
         H         H         1.0       0.34114646480625455           0.09207912147020525          0.7886706121858731 1.0000   
         C         C         1.0       0.04769644702890674           0.5746435378696119 0.8841843814199599 1.0000   
         C         C         1.0       0.05382358854849899           0.5921234150710353 0.9166081817609766 1.0000   
         H         H         1.0       0.08291018081337764           0.5902448003353238 0.8738219986655947 1.0000   
         H         H         1.0       0.02897413660378345           0.5861468798500293 0.8708042284269625 1.0000   
         H         H         1.0       0.020429072866285036          0.5707678365372679 0.9286530509494457 1.0000   
         H         H         1.0       0.06053479052909139           0.6268665241636462 0.9169959571221012 1.0000   
         C         C         1.0       0.6599842269350679  0.20181662805814282           0.9492664440855345 1.0000   
         C         C         1.0       0.6717350882226875  0.1843844215858608  0.9765300543321128 1.0000   
         H         H         1.0       0.6491002910116729  0.17959956760086168           0.9294358473087423 1.0000   
         H         H         1.0       0.695446673653697   0.23459949215090262           0.9406729647706449 1.0000   
         H         H         1.0       0.6521859806653922  0.14651247867445985           0.9727929738474804 1.0000   
         H         H         1.0       0.6581780555217259  0.18773202436679234           0.9968210813076183 1.0000   
         C         C         1.0       0.32935996282670704           0.9749177508186763 0.6169100288845026 1.0000   
         C         C         1.0       0.3265163848945963  0.9381648645253216  0.5978350643889231 1.0000   
         H         H         1.0       0.3200193328680336  0.9612372576166202  0.6395250115379808 1.0000   
         H         H         1.0       0.29712583771710077           0.9742564465066816 0.6120647116265737 1.0000   
         H         H         1.0       0.1531594171257853  0.8934245616756417  0.07350976495850658          1.0000   
         H         H         1.0       0.18267421062878494           0.9470915115311095 0.09204929506317994          1.0000   
         C         C         1.0       0.6637798435033276  0.30744980876135986           0.7108057708718318 1.0000   
         C         C         1.0       0.6518635333124857  0.2590794815960693  0.7006976092596945 1.0000   
         H         H         1.0       0.6843693111377711  0.3361430494505969  0.695021701560073  1.0000   
         H         H         1.0       0.6852320203146409  0.31835417913534714           0.7307748801253184 1.0000   
         H         H         1.0       0.6329497833424129  0.23611346580009174           0.7191508169867764 1.0000   
         H         H         1.0       0.6882877962161328  0.2650218148837883  0.6962453572665166 1.0000   
         C         C         1.0       0.5716909847113542  0.4664486526558029  0.9569974618505922 1.0000   
         C         C         1.0       0.6079322413046291  0.45346099851970445           0.9632361125631165 1.0000   
         H         H         1.0       0.5932269382163581  0.5050590928434392  0.9599357526917477 1.0000   
         H         H         1.0       0.5400033862497005  0.4522089199104943  0.9722331091120128 1.0000   
         H         H         1.0       0.6294674225800773  0.46918403123212266           0.9840223845399408 1.0000   
         H         H         1.0       0.6363056386596936  0.46721286365976966           0.9474042113764611 1.0000   
         C         C         1.0       0.03879378503172082           0.527874680492932  0.5210014044855971 1.0000   
         C         C         1.0       0.07122966901848216           0.5819203907433436 0.5167844168810395 1.0000   
         H         H         1.0       0.024900513440936578          0.5055175001423257 0.5006622304015143 1.0000   
         H         H         1.0       0.0022210521122649762         0.515852102646776  0.5302577368795026 1.0000   
         H         H         1.0       0.054227746265429255          0.5889285532224934 0.5004266229219442 1.0000   
         H         H         1.0       0.10702156020769715           0.5950987429549998 0.5051886044778299 1.0000   
         C         C         1.0       0.07500508736929816           0.5595591835406521 0.8010682500867993 1.0000   
         C         C         1.0       0.13184770361420442           0.5991617788404014 0.7941657246379781 1.0000   
         H         H         1.0       0.054521493378614186          0.5743197656087812 0.7980494405257327 1.0000   
         H         H         1.0       0.06826886848409743           0.5470935677703002 0.8245943667459161 1.0000   
         H         H         1.0       0.14203591606102406           0.6009997241074828 0.7712421036345409 1.0000   
         H         H         1.0       0.136760288320477   0.6334456010668001  0.799666134677729  1.0000   
         C         C         1.0       0.8273576717857513  0.2995676978618893  0.7451757135751821 1.0000   
         C         C         1.0       0.8232353388823352  0.32712785567058217           0.7703985984329482 1.0000   
         H         H         1.0       0.8032950187826258  0.29833578098124036           0.7278269050531023 1.0000   
         H         H         1.0       0.8095332504672335  0.26003497660302505           0.74926523838195   1.0000   
         H         H         1.0       0.7849365752280971  0.31159099552953184           0.7789407924282985 1.0000   
         H         H         1.0       0.8360371909971215  0.3645462902011082  0.7626950466448492 1.0000   
         C         C         1.0       0.01709805184280988           0.40406091964785634          0.10872393392913104          1.0000   
         C         C         1.0       0.9804969214479203  0.40788677279932645           0.09027081783222601          1.0000   
         H         H         1.0       0.05267380916612341           0.4227885731217511 0.09693506486673975          1.0000   
         H         H         1.0       0.0004332989562292333         0.3665738085670338 0.10947394602769367          1.0000   
         H         H         1.0       0.951658327924338   0.40569552795991914           0.10467798015313856          1.0000   
         H         H         1.0       0.0026744382709193992         0.44451633296140985          0.08098022862709886          1.0000   
         C         C         1.0       0.364903585456039   0.3814873850995871  0.7276083375217363 1.0000   
         C         C         1.0       0.40608681568130484           0.387488248503517  0.7065068688468792 1.0000   
         H         H         1.0       0.3746047858498365  0.379662602659126   0.749994761963196  1.0000   
         H         H         1.0       0.32816709942262673           0.34716625899457193          0.7232357931809578 1.0000   
         H         H         1.0       0.39247102461633393           0.3745802929156228 0.6844456585055735 1.0000   
         H         H         1.0       0.4351663569482344  0.42485421782436456           0.7022816148173411 1.0000   
         C         C         1.0       0.5098025513316727  0.7235827038884307  0.7867773719623055 1.0000   
         C         C         1.0       0.4829417364655623  0.7448727680530582  0.7983524754658848 1.0000   
         H         H         1.0       0.5258569104140853  0.7146548032785932  0.8034302437529246 1.0000   
         H         H         1.0       0.5462085585233368  0.7527727965628974  0.7744661761768509 1.0000   
         H         H         1.0       0.47629465118791225           0.7605449715650191 0.7792651470684634 1.0000   
         H         H         1.0       0.5038448047910056  0.775453686249438   0.812103466457438  1.0000   
         C         C         1.0       0.185061176846982   0.4709486719229884  0.08823585889637275          1.0000   
         C         C         1.0       0.15859115522736536           0.4541591312591034 0.05874455880569118          1.0000   
         H         H         1.0       0.15849151387188348           0.44442804715438305          0.10340661445786181          1.0000   
         H         H         1.0       0.18985327460270698           0.5017296590556573 0.09902819660962492          1.0000   
         H         H         1.0       0.1648398241775399  0.4295263384977264  0.048594699264893126         1.0000   
         H         H         1.0       0.11890526284457066           0.43598201997575264          0.06279956149307142          1.0000   
         C         C         1.0       0.35595910600543573           0.660198254887025  0.6383455241201285 1.0000   
         C         C         1.0       0.3404967732700414  0.6564058429302373  0.6056885600142108 1.0000   
         H         H         1.0       0.33339039813349747           0.6662676403495783 0.6534118158602784 1.0000   
         H         H         1.0       0.39441699653572915           0.6967684295249233 0.6396062994490473 1.0000   
         H         H         1.0       0.36390250092465626           0.6506536023790989 0.5914908988878558 1.0000   
         H         H         1.0       0.3489770726384218  0.6915252036392217  0.5987099787479935 1.0000   
         C         C         1.0       0.4497079959642564  0.29685301015043847           0.6245688731071546 1.0000   
         C         C         1.0       0.3410389567480634  0.30809377846830327           0.09579102756118663          1.0000   
         H         H         1.0       0.41634083305213143           0.3357597962585821 0.07586561818452453          1.0000   
         H         H         1.0       0.4498379324596702  0.3073760196524242  0.6475090669537501 1.0000   
         H         H         1.0       0.5273397430598106  0.3379297839857152  0.6103022973144145 1.0000   
         H         H         1.0       0.3444505065736501  0.2961691071873458  0.11666078818656289          1.0000   
         C         C         1.0       0.5273301568734197  0.5789088207897829  0.0018940342740680904        1.0000   
         C         C         1.0       0.5843918107709635  0.6049197817344985  0.004187422784911021         1.0000   
         H         H         1.0       0.5144473300630026  0.5478457111688956  0.9862633039205412 1.0000   
         H         H         1.0       0.5261239278435327  0.6063148362121518  0.9929912692517143 1.0000   
         H         H         1.0       0.59954257997588    0.6041082951046132  0.9827642825337618 1.0000   
         H         H         1.0       0.5897920922506666  0.5805337924094464  0.017057127348637513         1.0000   
         C         C         1.0       0.9676779327663345  0.16718369691459656           0.998467893746472  1.0000   
         C         C         1.0       0.9497105951482944  0.12965332539235552           0.9733632056725295 1.0000   
         H         H         1.0       0.007844523710708762          0.19382231825432705          0.996715206567609  1.0000   
         H         H         1.0       0.9596738603672221  0.15279051748915773           0.02116177810895281          1.0000   
         H         H         1.0       0.9770187201410837  0.12046738817868685           0.9675385684928731 1.0000   
         H         H         1.0       0.9492399490287733  0.14695068994906646           0.9547147926784296 1.0000   
         C         C         1.0       0.8663060971771156  0.7401863890579548  0.026455283531958473         1.0000   
         C         C         1.0       0.9137024303479051  0.770154821704687   0.007848284226467328         1.0000   
         H         H         1.0       0.8727679119257779  0.7249993112852944  0.04551802685106332          1.0000   
         H         H         1.0       0.8400617507854661  0.7105468638404736  0.01282302988038464          1.0000   
         H         H         1.0       0.9315673427708245  0.8051399641110697  0.016917267318008022         1.0000   
         H         H         1.0       0.9037780124002529  0.7709717352898116  0.9856591468174043 1.0000   
         C         C         1.0       0.7593265724228282  0.2066841929152683  0.6925943028543285 1.0000   
         C         C         1.0       0.7077143904142648  0.17741804918611748           0.677490008853614  1.0000   
         H         H         1.0       0.7562116998280458  0.22265670011101024           0.7130755024629851 1.0000   
         H         H         1.0       0.7850662393550318  0.23786017293023573           0.67818824513039   1.0000   
         H         H         1.0       0.7096478255748409  0.16076917352166964           0.6568339994489713 1.0000   
         H         H         1.0       0.7018285248611287  0.20232781910971775           0.666568482557774  1.0000   
         C         C         1.0       0.035647657262039   0.2388233513659791  0.8867468196066596 1.0000   
         C         C         1.0       0.056099980320345466          0.2808283086401065 0.8653319201672025 1.0000   
         H         H         1.0       0.0330561782279879  0.2500280450995503  0.9101411336152109 1.0000   
         H         H         1.0       0.06419632402691744           0.23256155072261323          0.8903781881907119 1.0000   
         H         H         1.0       0.049192680913919595          0.2657209192914333 0.8431755262736045 1.0000   
         H         H         1.0       0.09757237786622253           0.3074052055782865 0.8679909110027179 1.0000   
         C         C         1.0       0.6580751212297807  0.012768245058646821         0.9197067255305635 1.0000   
         C         C         1.0       0.6335733565841899  0.9609595755511294  0.9203785338804231 1.0000   
         H         H         1.0       0.6655970328828353  0.027920457876297267         0.9412970760457582 1.0000   
         H         H         1.0       0.6345466789103575  0.02172652312595269           0.9080378649059847 1.0000   
         H         H         1.0       0.6261078182945481  0.948800375922284   0.8981344657331961 1.0000   
         H         H         1.0       0.5984210471930699  0.9432704175286947  0.9336443364918707 1.0000   
         C         C         1.0       0.858388436097765   0.9645855418606717  0.6696405275018469 1.0000   
         C         C         1.0       0.8334807652574937  0.9824658154239251  0.6527010226338291 1.0000   
         H         H         1.0       0.8457238002584482  0.9565392984974557  0.693231742525502  1.0000   
         H         H         1.0       0.8968425562761815  0.9921181250924208  0.673696228851265  1.0000   
         H         H         1.0       0.8477535953926243  0.9918153281447465  0.6295014141726707 1.0000   
         H         H         1.0       0.795564917041926   0.958912722640587   0.6510252846390483 1.0000   
         C         C         1.0       0.0771219819808926  0.2740139046936112  0.7703161073338248 1.0000   
         C         C         1.0       0.11752703122588382           0.3102070145057848 0.7469878108028691 1.0000   
         H         H         1.0       0.07754063038147274           0.29352525815782643          0.790646894906366  1.0000   
         H         H         1.0       0.09053367724192585           0.2547553181023836 0.779172119354795  1.0000   
         H         H         1.0       0.11843031044898455           0.28885487007498595          0.7284249849900301 1.0000   
         H         H         1.0       0.15497459309418682           0.33021818475201425          0.7578425218076269 1.0000   
         C         C         1.0       0.6159466127183868  0.6326296733554339  0.7467521981229859 1.0000   
         C         C         1.0       0.5707040424684713  0.6099614918880776  0.7677282503111522 1.0000   
         H         H         1.0       0.6239125911544506  0.6668477584410674  0.738954800352256  1.0000   
         H         H         1.0       0.607400597966717   0.6110408968736286  0.7271551375606047 1.0000   
         H         H         1.0       0.5388480197170317  0.5994355644378695  0.7540425786265161 1.0000   
         H         H         1.0       0.5786360714477699  0.6398825330324218  0.7840453318776358 1.0000   
         C         C         1.0       0.9688529412523622  0.6929224051512645  0.6992298252364374 1.0000   
         C         C         1.0       0.9454464069905781  0.7155585216962512  0.6858688344909125 1.0000   
         H         H         1.0       0.9383715493791764  0.6553106579147844  0.7047141921078109 1.0000   
         H         H         1.0       0.9832348779550921  0.7110883637175551  0.7211817497413379 1.0000   
         H         H         1.0       0.9226643909960112  0.6973974875234065  0.6658168150840333 1.0000   
         H         H         1.0       0.9769725979114409  0.751781672162813   0.6795214039375115 1.0000   
         C         C         1.0       0.8271183996217297  0.5012134675229964  0.9348071270587472 1.0000   
         C         C         1.0       0.8725620428214765  0.50039706947539    0.9377805202077639 1.0000   
         H         H         1.0       0.810972149142247   0.49606020650227284           0.9569563465548776 1.0000   
         H         H         1.0       0.8012278364781764  0.47133656486421105           0.9206831792093563 1.0000   
         H         H         1.0       0.8910241702804389  0.50119637200877    0.9153310146109221 1.0000   
         H         H         1.0       0.8594163040760878  0.4650351678002561  0.9491554359259864 1.0000   
         C         C         1.0       0.8315896743568458  0.8224472795727626  0.9123805687292179 1.0000   
         C         C         1.0       0.8498048300795242  0.8062935942401757  0.9358677108867273 1.0000   
         H         H         1.0       0.8035343881974064  0.7949090270356877  0.896956616391217  1.0000   
         H         H         1.0       0.8619168198308836  0.8444505654057242  0.8963184735927208 1.0000   
         H         H         1.0       0.8196025413485708  0.7863628502807184  0.9543292177347384 1.0000   
         H         H         1.0       0.8820906581184657  0.8358204686792395  0.9465031319671301 1.0000   
         C         C         1.0       0.8363258740075893  0.8934957281078383  0.8129881806904046 1.0000   
         C         C         1.0       0.8123697441955225  0.8937122383614218  0.8421540349919033 1.0000   
         H         H         1.0       0.8764680130989331  0.9218650043286365  0.813075992382954  1.0000   
         H         H         1.0       0.8253988186216397  0.9056368215857314  0.7941941662297962 1.0000   
         H         H         1.0       0.8288716825838369  0.8877964651471685  0.8598458585437588 1.0000   
         H         H         1.0       0.7722437720001147  0.8641395011544093  0.8420483669935401 1.0000   
         C         C         1.0       0.34892854078949703           0.7626834265710011 0.0430403379462172 1.0000   
         C         C         1.0       0.39015138039735364           0.796856126887127  0.018985569157805582         1.0000   
         H         H         1.0       0.3303728300055304  0.7804765791950334  0.0510694300895147 1.0000   
         H         H         1.0       0.36568779223125125           0.7575549498778378 0.061649899195656666         1.0000   
         H         H         1.0       0.4187903470906775  0.790043976363639   0.016394866856240142         1.0000   
         H         H         1.0       0.41316576124997717           0.8331859749735656 0.02740705693498957          1.0000   
         C         C         1.0       0.2306267950326771  0.8293797735034913  0.006817744457106034         1.0000   
         C         C         1.0       0.2153935164753255  0.7883428429055399  0.9864262192630195 1.0000   
         H         H         1.0       0.23962491699932698           0.8233961372888506 0.027638294792617257         1.0000   
         H         H         1.0       0.19893440235516574           0.8316957352179853 0.014287495217108148         1.0000   
         H         H         1.0       0.23192748798555862           0.7996438232156874 0.9639362803117031 1.0000   
         H         H         1.0       0.23212006685726694           0.7721584022527532 0.9931877032380892 1.0000   
         C         C         1.0       0.3384769785360413  0.11304041666569531           0.8814692655898704 1.0000   
         C         C         1.0       0.38198563863682383           0.157474079055693  0.8674577248860239 1.0000   
         H         H         1.0       0.3160456215504998  0.09064963889673927           0.8624097342195922 1.0000   
         H         H         1.0       0.3151313430779608  0.12270572385952572           0.8924579719677573 1.0000   
         H         H         1.0       0.3690778428801139  0.17388691882399354           0.854439787328239  1.0000   
         H         H         1.0       0.4008947889187677  0.14849515151347426           0.8498783752154172 1.0000   
         C         C         1.0       0.12613310472275308           0.7213130471934613 0.8905871300483074 1.0000   
         C         C         1.0       0.10620688651534271           0.746215371168465  0.8748197441760833 1.0000   
         H         H         1.0       0.10783993046409866           0.6851119728901135 0.8817327333901328 1.0000   
         H         H         1.0       0.11377872557531656           0.7191515864197815 0.9130671058435257 1.0000   
         H         H         1.0       0.1217027448026257  0.7834771881714759  0.8845692388828962 1.0000   
         H         H         1.0       0.11793896767064307           0.7528850957674159 0.8531818967752727 1.0000   
         C         C         1.0       0.5151353271384553  0.026386751703044276         0.04969760968278414          1.0000   
         C         C         1.0       0.5294089063812303  0.07652288453297085           0.042009639398823184         1.0000   
         H         H         1.0       0.5425686477592002  0.026010599304330917         0.06085726477019815          1.0000   
         H         H         1.0       0.5145142912036476  0.009123612417869076         0.028854036941155403         1.0000   
         H         H         1.0       0.5702986093203715  0.09968992481293171           0.037551377841269495         1.0000   
         H         H         1.0       0.5242830499250322  0.09561421769072576           0.060583828941161544         1.0000   
         C         C         1.0       0.4813415648782185  0.8549920551884147  0.8079207356051614 1.0000   
         C         C         1.0       0.5312068888650268  0.9027229975547387  0.8128888735089218 1.0000   
         H         H         1.0       0.4678420895581413  0.8562994107631337  0.7856952394605979 1.0000   
         H         H         1.0       0.48504704530238096           0.8258983732359488 0.8047426761322197 1.0000   
         H         H         1.0       0.5623573564334872  0.9008519647898207  0.8080116344490625 1.0000   
         H         H         1.0       0.5366032127794731  0.9150813113818255  0.8352757162350843 1.0000

