data_0
_chemical_formula_sum                   'C1200 H960'
_cell_length_a                          40.172276403790725
_cell_length_b                          39.984756584093184
_cell_length_c                          55.22230505205881
_cell_angle_alpha                       91.16468333934263
_cell_angle_beta                        88.29526754484796
_cell_angle_gamma                       120.42651679319849
_space_group_name_H-M_alt               'P 1'
_space_group_IT_number                  1
loop_
  _space_group_symop_operation_xyz
         'x, y, z' 
loop_
  _atom_site_type_symbol
  _atom_site_label
  _atom_site_symmetry_multiplicity
  _atom_site_fract_x
  _atom_site_fract_y
  _atom_site_fract_z
  _atom_site_occupancy
         C         C         1.0       0.20833097828466052           0.7695295551186859 0.24036624051529767          1.0000   
         C         C         1.0       0.17643754387020405           0.7700749363401151 0.2495335266404224 1.0000   
         C         C         1.0       0.16398327938035007           0.7582813492257074 0.2729107053418058 1.0000   
         C         C         1.0       0.18352689344052406           0.7461396371592438 0.2870039658053499 1.0000   
         C         C         1.0       0.21623766279394568           0.7463625076748771 0.2773626143529478 1.0000   
         C         C         1.0       0.22799545602583404           0.7569256801472528 0.25363565963886203          1.0000   
         H         H         1.0       0.16243329325919423           0.782680742922488  0.23883984250653367          1.0000   
         H         H         1.0       0.13985992833234745           0.760014484003516  0.280484372349964  1.0000   
         H         H         1.0       0.23415759627763905           0.7413486379930628 0.2880751233650928 1.0000   
         H         H         1.0       0.25278172526533355           0.7546531265761194 0.2453910071630395 1.0000   
         C         C         1.0       0.16613421875416762           0.6655529305907225 0.30167539041794694          1.0000   
         C         C         1.0       0.17236951230382858           0.6918900687588965 0.31977663616749835          1.0000   
         C         C         1.0       0.17363925928917615           0.6800680141854483 0.3433532110983335 1.0000   
         C         C         1.0       0.17343785614434734           0.645595930716356  0.3472883246237712 1.0000   
         C         C         1.0       0.17183419995553115           0.6221440389492824 0.3276050961609597 1.0000   
         C         C         1.0       0.168549334962774   0.6329451129175815  0.3047350511202163 1.0000   
         C         C         1.0       0.16995234396515288           0.7308942621773479 0.31381450266752114          1.0000   
         C         C         1.0       0.12676962972600672           0.716678558118907  0.32244653992617733          1.0000   
         C         C         1.0       0.11921503502076859           0.7202503929176401 0.34686393938292437          1.0000   
         C         C         1.0       0.08107109036994141           0.7027713202922182 0.35623340621154875          1.0000   
         C         C         1.0       0.05203085144283002           0.6856157344993602 0.3400635219849885 1.0000   
         C         C         1.0       0.058821059957078294          0.6810417087048098 0.3160825424099442 1.0000   
         C         C         1.0       0.09542730032708514           0.6962675112408634 0.30683949195428656          1.0000   
         C         C         1.0       0.2249355322316316  0.7727519083703263  0.3428459000334642 1.0000   
         C         C         1.0       0.2425272389949874  0.8041327002224858  0.35811613483220933          1.0000   
         C         C         1.0       0.23676418115075207           0.8354526397932929 0.35654492980348595          1.0000   
         C         C         1.0       0.21120331489481617           0.83225970382682   0.33933734992518005          1.0000   
         C         C         1.0       0.19088082748410812           0.7994917210893377 0.3259438264367691 1.0000   
         C         C         1.0       0.1976704337185891  0.7693630998014742  0.32723883252459257          1.0000   
         C         C         1.0       0.253168586977028   0.8696270718221821  0.37611974383191066          1.0000   
         C         C         1.0       0.14345398560705305           0.8206868742878538 0.4159860565219488 1.0000   
         C         C         1.0       0.16747249684986454           0.8062308742122122 0.4183702059834803 1.0000   
         C         C         1.0       0.2039758192201318  0.8233587321497883  0.40762505618211564          1.0000   
         C         C         1.0       0.21627858484611226           0.8556515947843258 0.39311912857037923          1.0000   
         C         C         1.0       0.19107011724442924           0.869998473457553  0.39061409983337014          1.0000   
         C         C         1.0       0.15668745286126232           0.8550582373079979 0.4032439760386315 1.0000   
         C         C         1.0       0.2705860318660798  0.9110169841694391  0.36261433268488924          1.0000   
         C         C         1.0       0.2898890227362192  0.9153843594202177  0.34003771433117247          1.0000   
         C         C         1.0       0.3060836828432081  0.9483937595963902  0.32713489458834033          1.0000   
         C         C         1.0       0.30429753130224846           0.9788696641778467 0.3370205110406524 1.0000   
         C         C         1.0       0.29277202453925877           0.9778249879358837 0.36079493185045164          1.0000   
         C         C         1.0       0.2746685185814882  0.9428005713905444  0.3740550443822515 1.0000   
         C         C         1.0       0.2952404552671137  0.8851787863257171  0.4146993486748834 1.0000   
         C         C         1.0       0.3270084571467573  0.890206289786847   0.4273672748459266 1.0000   
         C         C         1.0       0.35443584758606245           0.8854788524209524 0.414917533855787  1.0000   
         C         C         1.0       0.3491792854508562  0.873996184057171   0.3911455196175792 1.0000   
         C         C         1.0       0.3175131781005558  0.8677102848965027  0.37895643159869363          1.0000   
         C         C         1.0       0.28995970708874796           0.8752502970151165 0.3895977660356563 1.0000   
         H         H         1.0       0.15499539009652086           0.6685300508211034 0.28380680396752195          1.0000   
         H         H         1.0       0.17299916633884815           0.6955993324207664 0.35928987514858407          1.0000   
         H         H         1.0       0.16977586783586557           0.6338281568118523 0.3655527008223142 1.0000   
         H         H         1.0       0.16795850510191415           0.6156499083625484 0.288558629613294  1.0000   
         H         H         1.0       0.1419539860333817  0.7359980517052708  0.3594372027926151 1.0000   
         H         H         1.0       0.07633593457206087           0.7046567515179883 0.37548012227491434          1.0000   
         H         H         1.0       0.033563721781668124          0.6658729221637183 0.3036882252956354 1.0000   
         H         H         1.0       0.09868242429350309           0.6930300369013871 0.2870937066619882 1.0000   
         H         H         1.0       0.230901214591223   0.7483809102707044  0.34394524735994847          1.0000   
         H         H         1.0       0.26224233614147535           0.8033276176033339 0.37100746730069367          1.0000   
         H         H         1.0       0.20137594562932262           0.8525042569977043 0.3375450016205535 1.0000   
         H         H         1.0       0.16758638560183056           0.7967560872308262 0.3149753029957917 1.0000   
         H         H         1.0       0.1583314955360065  0.7801941847069361  0.4282282726800124 1.0000   
         H         H         1.0       0.22315077309354217           0.8125624161446771 0.4104233462863248 1.0000   
         H         H         1.0       0.19415817664427243           0.8908282357500587 0.3764902603423895 1.0000   
         H         H         1.0       0.13838682209997463           0.8667075309055866 0.3992766480205814 1.0000   
         H         H         1.0       0.2876669289535444  0.890131882576372   0.33166820692112126          1.0000   
         H         H         1.0       0.3149474409849694  0.9492788142140868  0.30845429641370326          1.0000   
         H         H         1.0       0.29267756638901304           0.0016609937892702042        0.3693187037230551 1.0000   
         H         H         1.0       0.26497632012038297           0.9398788436839346 0.39216380957482183          1.0000   
         H         H         1.0       0.2771452983302471  0.8937341720363039  0.42517048642217997          1.0000   
         H         H         1.0       0.3315681973930376  0.9014239290281383  0.4449764486795332 1.0000   
         H         H         1.0       0.37117471525454665           0.8692933680314526 0.38142531398755125          1.0000   
         H         H         1.0       0.3146076837690477  0.8597001847948724  0.3605083678414874 1.0000   
         C         C         1.0       0.882258151817704   0.6542480721758266  0.1841104661478113 1.0000   
         C         C         1.0       0.8813319111371358  0.6862388889675552  0.19374623705910818          1.0000   
         C         C         1.0       0.8499998385673266  0.6807519914096242  0.20741509114084275          1.0000   
         C         C         1.0       0.8197889317175912  0.6448435262564336  0.21396386821391591          1.0000   
         C         C         1.0       0.8270083162737165  0.6164265440671648  0.20863542388305842          1.0000   
         C         C         1.0       0.8554172133214674  0.619608468794995   0.1925479530962809 1.0000   
         H         H         1.0       0.9059339784348753  0.7151760439091054  0.19124438673660013          1.0000   
         H         H         1.0       0.8507761702509564  0.7065706030739125  0.2141305278078627 1.0000   
         H         H         1.0       0.808441849467605   0.5873335956386805  0.21701724439116862          1.0000   
         H         H         1.0       0.8540163132885886  0.5925997417170985  0.18682796625730183          1.0000   
         C         C         1.0       0.7368798797708818  0.5932670301651489  0.20025695845759453          1.0000   
         C         C         1.0       0.7432419308120507  0.6054407561247673  0.22412134933974115          1.0000   
         C         C         1.0       0.7134231229002572  0.5853312520776414  0.24031285622028084          1.0000   
         C         C         1.0       0.6806544629689195  0.5530828434635792  0.23392176970855788          1.0000   
         C         C         1.0       0.6766327649110658  0.5381308140455918  0.21123732694874148          1.0000   
         C         C         1.0       0.7052222806105632  0.5596718956430595  0.19365054398869377          1.0000   
         C         C         1.0       0.7854691752634756  0.639285952054061   0.23221007545878744          1.0000   
         C         C         1.0       0.7751680021467401  0.6737631329560392  0.23403283428681781          1.0000   
         C         C         1.0       0.759289936135855   0.6793672763305184  0.2550104812544847 1.0000   
         C         C         1.0       0.7466558654465703  0.7053899394419894  0.2560675964268193 1.0000   
         C         C         1.0       0.7509378546913976  0.7283107696623438  0.23671951796485105          1.0000   
         C         C         1.0       0.7658209321704078  0.7222248904798575  0.21538310778283737          1.0000   
         C         C         1.0       0.7776282192224245  0.695179748920496   0.21318327506869075          1.0000   
         C         C         1.0       0.7885132498130009  0.6010569932555732  0.26912799320447506          1.0000   
         C         C         1.0       0.8013063153963201  0.6006240767236114  0.2920047234581703 1.0000   
         C         C         1.0       0.8277350602294598  0.6349859847064753  0.30271118977454775          1.0000   
         C         C         1.0       0.8427326620441723  0.6682995923462575  0.2908334726968151 1.0000   
         C         C         1.0       0.8321853896633677  0.6688192316037992  0.2673961538632196 1.0000   
         C         C         1.0       0.8010581297634849  0.6352224500801866  0.25684852608916825          1.0000   
         C         C         1.0       0.8362771062461435  0.637301245379614   0.33074940797137303          1.0000   
         C         C         1.0       0.7780834500386045  0.6964969245120212  0.3566879153038666 1.0000   
         C         C         1.0       0.7578691204110057  0.6572230444212754  0.3538773308701948 1.0000   
         C         C         1.0       0.7757303066125526  0.6394035879975374  0.34511836730289325          1.0000   
         C         C         1.0       0.8146114917968489  0.658066009839874   0.3412987665116221 1.0000   
         C         C         1.0       0.8358051367945221  0.6998548124043047  0.34513743342518094          1.0000   
         C         C         1.0       0.8177435760803977  0.7179279673535849  0.35396553635136846          1.0000   
         C         C         1.0       0.8825776884468574  0.6617055379614639  0.3352238208564754 1.0000   
         C         C         1.0       0.9088886736913133  0.667190911908897   0.3173252623281034 1.0000   
         C         C         1.0       0.9464974710093513  0.682090845335407   0.32350119250579956          1.0000   
         C         C         1.0       0.9590469804756044  0.6929790366384205  0.34669047420063487          1.0000   
         C         C         1.0       0.9329881366017291  0.6877960259534137  0.3643950675935639 1.0000   
         C         C         1.0       0.895065219190164   0.6733808641867219  0.3591251285360922 1.0000   
         C         C         1.0       0.838517020432643   0.573579126433601   0.3301777759777681 1.0000   
         C         C         1.0       0.8363931862306787  0.5423221233363681  0.3412239993603345 1.0000   
         C         C         1.0       0.8241706956864865  0.5341748585187168  0.3654298900753684 1.0000   
         C         C         1.0       0.8134783721141253  0.5587013559438887  0.3784769150772111 1.0000   
         C         C         1.0       0.8127128401592284  0.5865874517212692  0.36582324541912214          1.0000   
         C         C         1.0       0.8263406124352513  0.5965243587088969  0.3426809291342551 1.0000   
         H         H         1.0       0.7554233891083137  0.6094644671772567  0.18588682369238924          1.0000   
         H         H         1.0       0.7146183398491616  0.5899441988010127  0.26055211061973094          1.0000   
         H         H         1.0       0.6589829053810035  0.5382655040436103  0.24753929147651946          1.0000   
         H         H         1.0       0.6989883686808546  0.5490314670793407  0.1755728308842425 1.0000   
         H         H         1.0       0.7536784145858355  0.6600197950861588  0.2701666534276157 1.0000   
         H         H         1.0       0.7326426331561942  0.7056487405811415  0.27345818590143245          1.0000   
         H         H         1.0       0.7681949279730131  0.7392001651053245  0.20090329155041456          1.0000   
         H         H         1.0       0.7853646009453759  0.690675771619138   0.1944510983103428 1.0000   
         H         H         1.0       0.7665122525273128  0.573180524492016   0.2620312365104286 1.0000   
         H         H         1.0       0.7864647486411457  0.5725443129335955  0.30134212269223504          1.0000   
         H         H         1.0       0.8631646740586773  0.6948950626809411  0.298769096753036  1.0000   
         H         H         1.0       0.8453832117608211  0.6976196681764821  0.2581388904942771 1.0000   
         H         H         1.0       0.7272501876838428  0.6379909572910741  0.35851764469039904          1.0000   
         H         H         1.0       0.7605925312068735  0.6089323808866837  0.3400406193842583 1.0000   
         H         H         1.0       0.8657005281846261  0.7156970407042657  0.343235863955031  1.0000   
         H         H         1.0       0.8319609850627173  0.7487566389665523  0.35641666672407213          1.0000   
         H         H         1.0       0.9030841217213573  0.6607947603317142  0.2984204282410169 1.0000   
         H         H         1.0       0.9662376357533276  0.6855402008902174  0.3099048262585088 1.0000   
         H         H         1.0       0.9412546515913174  0.695632203186292   0.38346516086382176          1.0000   
         H         H         1.0       0.8760671921260574  0.6712007000538799  0.3743575438036527 1.0000   
         H         H         1.0       0.8491835402647182  0.5819393935860119  0.3126383292602697 1.0000   
         H         H         1.0       0.8444851585155697  0.5221172430664881  0.3346894508132925 1.0000   
         H         H         1.0       0.807103744848812   0.5543384341982155  0.3975160618812903 1.0000   
         H         H         1.0       0.8025426328606168  0.6022671828122707  0.3764659922730656 1.0000   
         C         C         1.0       0.6449670535034869  0.8283595995832342  0.0777927727313865 1.0000   
         C         C         1.0       0.6580900878728267  0.8678523639674085  0.07733755649126967          1.0000   
         C         C         1.0       0.6527586901132008  0.8858762152922468  0.09765729188211549          1.0000   
         C         C         1.0       0.6381802176450668  0.8669046379264024  0.11917068626139293          1.0000   
         C         C         1.0       0.6237845727675753  0.8277237131968819  0.11925571150474631          1.0000   
         C         C         1.0       0.627265195343187   0.8093147613855076  0.09831446308478622          1.0000   
         H         H         1.0       0.6731331581143138  0.8852780518321102  0.06155215098273491          1.0000   
         H         H         1.0       0.6605444408358306  0.9147127966877752  0.09487337813488624          1.0000   
         H         H         1.0       0.6075861979065393  0.8113143431288818  0.13464435419164256          1.0000   
         H         H         1.0       0.6132282483765524  0.7763619386688568  0.09991205107726066          1.0000   
         C         C         1.0       0.5660772416367998  0.8598471915638215  0.1437026174839745 1.0000   
         C         C         1.0       0.6000973792753924  0.8922330980632073  0.13738654728729088          1.0000   
         C         C         1.0       0.5982961393988642  0.9203849558275007  0.12634786856931868          1.0000   
         C         C         1.0       0.5642899766605547  0.9214535174011315  0.12473399626632581          1.0000   
         C         C         1.0       0.5310475569488575  0.890614485589499   0.13378312232871004          1.0000   
         C         C         1.0       0.5313171583999071  0.8595479397950618  0.14412794539088505          1.0000   
         C         C         1.0       0.639021500666433   0.8914733444966761  0.1422822765266057 1.0000   
         C         C         1.0       0.6792466760697822  0.9321149843588368  0.1460347105992872 1.0000   
         C         C         1.0       0.6826668355427739  0.9648152401730117  0.1575020744130878 1.0000   
         C         C         1.0       0.7167938630514855  0.9964507892953662  0.16188258759421523          1.0000   
         C         C         1.0       0.7504619396691304  0.9981649343095257  0.15538295285051648          1.0000   
         C         C         1.0       0.7484846916960151  0.9655981995495871  0.14434613751542966          1.0000   
         C         C         1.0       0.7139054922655662  0.935018251445194   0.14025256022959218          1.0000   
         C         C         1.0       0.6207844634541775  0.8830931936959312  0.18805770037382588          1.0000   
         C         C         1.0       0.6231970290734259  0.8719934260902775  0.2115801379978612 1.0000   
         C         C         1.0       0.6457064898404435  0.8547127046535495  0.21602273534356228          1.0000   
         C         C         1.0       0.6573366788197634  0.8413391029435279  0.19620161005869213          1.0000   
         C         C         1.0       0.6570722390945207  0.8548591979856645  0.17329205249035234          1.0000   
         C         C         1.0       0.6381851153025832  0.8747783865750497  0.16872608035322353          1.0000   
         C         C         1.0       0.6556354405063769  0.8542696167042969  0.2437855582385707 1.0000   
         C         C         1.0       0.7264979913038779  0.9739569300777593  0.2693232015780776 1.0000   
         C         C         1.0       0.7111118526983887  0.9433778887086436  0.2850191739061564 1.0000   
         C         C         1.0       0.6875733186535021  0.9059856514740247  0.2773245340061848 1.0000   
         C         C         1.0       0.6813500739806243  0.8976945898345842  0.25301069872570164          1.0000   
         C         C         1.0       0.7013301797641467  0.9278942548269603  0.23674114343010036          1.0000   
         C         C         1.0       0.7208580183650962  0.9652664724621786  0.24493252337383808          1.0000   
         C         C         1.0       0.6837967011927244  0.8369560151262537  0.248107729352169  1.0000   
         C         C         1.0       0.6748654152712169  0.8102168785173866  0.2661331391986404 1.0000   
         C         C         1.0       0.6998787152268772  0.796907995373739   0.26896850416373924          1.0000   
         C         C         1.0       0.7324153281996129  0.8105875147711527  0.25462995453977094          1.0000   
         C         C         1.0       0.7422526189158363  0.837611486703184   0.23753141264359054          1.0000   
         C         C         1.0       0.7188146740241184  0.8516204040354931  0.235004898606737  1.0000   
         C         C         1.0       0.5909903034222356  0.7890118792094761  0.2513508309410559 1.0000   
         C         C         1.0       0.5565314097005201  0.7672054799358035  0.263358341192849  1.0000   
         C         C         1.0       0.5423375422023725  0.7839093672925989  0.2795398414469207 1.0000   
         C         C         1.0       0.5640420152202756  0.8246516184073848  0.2816549882399048 1.0000   
         C         C         1.0       0.5983103107002082  0.8465055037708915  0.27122124691812116          1.0000   
         C         C         1.0       0.6132923300286853  0.8289271392657086  0.2558500093120821 1.0000   
         H         H         1.0       0.5655652360429533  0.8341660022249873  0.15048229944678862          1.0000   
         H         H         1.0       0.6222878827870381  0.9451742537300786  0.11827283491835139          1.0000   
         H         H         1.0       0.5645799604111239  0.9455098029036543  0.11581618292638014          1.0000   
         H         H         1.0       0.5038001015797412  0.8333756625085715  0.1496367368919305 1.0000   
         H         H         1.0       0.6578185263960297  0.96570769697512    0.1605883135793618 1.0000   
         H         H         1.0       0.717708973657262   0.02057826905459791           0.1701967719427688 1.0000   
         H         H         1.0       0.7750637362549844  0.9659791526677692  0.13914009019908127          1.0000   
         H         H         1.0       0.7137401155749274  0.9087223637454943  0.13221678877827842          1.0000   
         H         H         1.0       0.6115192863634881  0.9037165751390802  0.18524040718357612          1.0000   
         H         H         1.0       0.613588828112503   0.8831103298691013  0.22677133469885205          1.0000   
         H         H         1.0       0.6713685977475009  0.8257036462933477  0.19753229944089032          1.0000   
         H         H         1.0       0.6732603284822668  0.8519223264566703  0.15923827534192256          1.0000   
         H         H         1.0       0.7143693485123045  0.9494181977315076  0.3042546083318607 1.0000   
         H         H         1.0       0.6794814181501089  0.8838411876757303  0.29048168143098124          1.0000   
         H         H         1.0       0.700690425945766   0.9224964084244538  0.21798441404708294          1.0000   
         H         H         1.0       0.7313845702869122  0.9885200318129774  0.23237448006958275          1.0000   
         H         H         1.0       0.6526244238944069  0.8053220384107401  0.28004945772698614          1.0000   
         H         H         1.0       0.6931035876646643  0.7778894494324511  0.284943845181971  1.0000   
         H         H         1.0       0.7678742387784995  0.8469957537430639  0.22522095206011306          1.0000   
         H         H         1.0       0.7286918533736454  0.874050763202908   0.22157691062183554          1.0000   
         H         H         1.0       0.600538805968797   0.7742949009377416  0.23845057129193406          1.0000   
         H         H         1.0       0.5388146103521592  0.7350161511549564  0.2593152758045808 1.0000   
         H         H         1.0       0.5492837585374406  0.8379198167140388  0.29202849618063137          1.0000   
         H         H         1.0       0.6117123586547072  0.8761348808280424  0.2748019849685922 1.0000   
         C         C         1.0       0.6454793270053978  0.7942122988070347  0.010853787346660843         1.0000   
         C         C         1.0       0.6816729260031644  0.7986102434968488  0.005725502114305786         1.0000   
         C         C         1.0       0.6998242416564157  0.7913431093301526  0.4947716009953686 1.0000   
         C         C         1.0       0.6670147712749017  0.7613714260346541  0.48607287313210407          1.0000   
         C         C         1.0       0.6312914534238137  0.7585288552889937  0.49317754786192725          1.0000   
         C         C         1.0       0.6136386256600486  0.7622397861029047  0.0029714408085207145        1.0000   
         H         H         1.0       0.7037356896459329  0.8216578909853357  0.01514814453828391          1.0000   
         H         H         1.0       0.7235257106028975  0.7937995707682938  0.4850274828675807 1.0000   
         H         H         1.0       0.6027557548111725  0.7360379048496417  0.4858067974899455 1.0000   
         H         H         1.0       0.5842691882187603  0.7567751289078338  0.0077837916474768456        1.0000   
         C         C         1.0       0.6154542647980459  0.6733385364812992  0.4956094263212534 1.0000   
         C         C         1.0       0.6308763778092179  0.6877853540374218  0.4729574045035941 1.0000   
         C         C         1.0       0.621812148911486   0.6603141663277435  0.45397529058205777          1.0000   
         C         C         1.0       0.5903324790188629  0.6236315470199141  0.4555352932758131 1.0000   
         C         C         1.0       0.5676471682140024  0.6131535795184307  0.477159893505773  1.0000   
         C         C         1.0       0.5833489364603054  0.6376173591671654  0.4964225071914073 1.0000   
         C         C         1.0       0.6637913638314237  0.7303841774241705  0.46642004598760195          1.0000   
         C         C         1.0       0.700454118913674   0.7248765847738129  0.4663200100969596 1.0000   
         C         C         1.0       0.7161142663991042  0.7217093092381356  0.4448181888196422 1.0000   
         C         C         1.0       0.7487612087548536  0.7178466848591581  0.443983842431303  1.0000   
         C         C         1.0       0.7644598508686192  0.7157912007614422  0.464228404616414  1.0000   
         C         C         1.0       0.747302862161419   0.7151939184481756  0.48585912574575135          1.0000   
         C         C         1.0       0.7162257246975864  0.7199677940871445  0.48683534955820645          1.0000   
         C         C         1.0       0.6225547075953747  0.7306663007915222  0.4320654021748243 1.0000   
         C         C         1.0       0.6180638845074743  0.7444560584578264  0.4107206150834418 1.0000   
         C         C         1.0       0.6483473603384499  0.7786186574913282  0.40161918593886575          1.0000   
         C         C         1.0       0.681837114116815   0.799397016503406   0.41397245668371674          1.0000   
         C         C         1.0       0.6868053373055468  0.7836085155979733  0.43485306704042676          1.0000   
         C         C         1.0       0.6568298511034155  0.7480673109274115  0.44400587936751873          1.0000   
         C         C         1.0       0.6467807139161541  0.7904674654989539  0.3743043177902008 1.0000   
         C         C         1.0       0.7277060225962396  0.7558657787624329  0.34598779140298114          1.0000   
         C         C         1.0       0.6891469998615367  0.7281793350099094  0.3470175534696684 1.0000   
         C         C         1.0       0.6641885993142409  0.7398397846360504  0.35615512320654624          1.0000   
         C         C         1.0       0.6762789659412807  0.777423220749524   0.3630508574644076 1.0000   
         C         C         1.0       0.7154382719356024  0.804432617920163   0.3598643897422665 1.0000   
         C         C         1.0       0.7403659294157203  0.7936993483012686  0.3499390485638746 1.0000   
         C         C         1.0       0.6580920374466656  0.8347539339074727  0.37525121400941736          1.0000   
         C         C         1.0       0.6412949617065253  0.8461929681265058  0.3941194087189685 1.0000   
         C         C         1.0       0.6542287500178091  0.8837136416039921  0.39744787498726186          1.0000   
         C         C         1.0       0.6799246322713366  0.9111778800446982  0.38207191423135867          1.0000   
         C         C         1.0       0.6930185187497939  0.9001203020488365  0.3618595102188763 1.0000   
         C         C         1.0       0.6815760801864269  0.8620031028987031  0.357857676826797  1.0000   
         C         C         1.0       0.612458373355916   0.7695838381886659  0.3332974976515148 1.0000   
         C         C         1.0       0.5805660867240565  0.7558364460203896  0.31932102813540386          1.0000   
         C         C         1.0       0.5459028644006941  0.7488104726573532  0.32939353072561645          1.0000   
         C         C         1.0       0.5430006990916599  0.7549366013368399  0.3535479568262533 1.0000   
         C         C         1.0       0.5750294415724321  0.7662974366590066  0.3674046603222993 1.0000   
         C         C         1.0       0.6096325637923156  0.7731182093476283  0.35822208034900693          1.0000   
         H         H         1.0       0.6104598607838692  0.6699178221907081  0.9973447672002145 1.0000   
         H         H         1.0       0.6370686198346113  0.6670088705873014  0.43591928641328315          1.0000   
         H         H         1.0       0.5823110856368154  0.6061294598114437  0.4392915297169134 1.0000   
         H         H         1.0       0.5666954483192747  0.5999123791147624  0.9992571410185473 1.0000   
         H         H         1.0       0.7023590478705097  0.7235812845147085  0.4288597603305877 1.0000   
         H         H         1.0       0.7607796837227306  0.7116514705842597  0.42880199155439164          1.0000   
         H         H         1.0       0.7630763418472445  0.7176981892672956  0.5023558815534287 1.0000   
         H         H         1.0       0.7051195792898385  0.7194300172961674  0.5050883084346245 1.0000   
         H         H         1.0       0.5979315037619582  0.7075586595247425  0.44028041611414914          1.0000   
         H         H         1.0       0.5940474155564284  0.7274597996725115  0.3985945578144481 1.0000   
         H         H         1.0       0.7075421092152894  0.8228197955809452  0.4059003426172171 1.0000   
         H         H         1.0       0.7149491993882022  0.79753539260023    0.4426519142082407 1.0000   
         H         H         1.0       0.6807548527561039  0.697668795092273   0.3462236543194587 1.0000   
         H         H         1.0       0.6328044404565407  0.7166310035450317  0.35925703922293145          1.0000   
         H         H         1.0       0.7299873863915441  0.8343136254254699  0.3661055046952737 1.0000   
         H         H         1.0       0.7710442422192293  0.8140728671219015  0.34956412914181517          1.0000   
         H         H         1.0       0.6222234664649194  0.828766142223646   0.408761745856642  1.0000   
         H         H         1.0       0.6459668874349326  0.8913603034266601  0.41370350021795244          1.0000   
         H         H         1.0       0.7134288366176548  0.9208761825554126  0.348519496484416  1.0000   
         H         H         1.0       0.6910982345882253  0.8548416019178336  0.34092973101317536          1.0000   
         H         H         1.0       0.6397675646940909  0.7816242409851096  0.32375452781393166          1.0000   
         H         H         1.0       0.5860766654345242  0.7547283394716776  0.3005724822468361 1.0000   
         H         H         1.0       0.5145979186065317  0.7471121969051561  0.3623268192715531 1.0000   
         H         H         1.0       0.5711727570145979  0.7659121468911737  0.3879335461434276 1.0000   
         C         C         1.0       0.30884804680503525           0.43506335614888886          0.4207347501639686 1.0000   
         C         C         1.0       0.3015327583428232  0.3997670446092298  0.42693089014202706          1.0000   
         C         C         1.0       0.32045015718651304           0.3938569102063204 0.44601445597602907          1.0000   
         C         C         1.0       0.347106928354346   0.4253453696466028  0.4594485549574671 1.0000   
         C         C         1.0       0.3513095876675037  0.4621173485261458  0.45418844439829714          1.0000   
         C         C         1.0       0.3340117893582775  0.46741972435126655           0.4345549714843054 1.0000   
         H         H         1.0       0.2770709728471916  0.3729454018325412  0.41990590279344925          1.0000   
         H         H         1.0       0.3106621527847036  0.36372342935541574           0.44965237362823085          1.0000   
         H         H         1.0       0.36652909175645587           0.48420699529947736          0.46750230772269685          1.0000   
         H         H         1.0       0.3390726464823514  0.49544000567621527           0.43039369459957577          1.0000   
         C         C         1.0       0.43470856659395196           0.467752477842484  0.45859265948423156          1.0000   
         C         C         1.0       0.41479010833017993           0.4534029437012148 0.4806012950234063 1.0000   
         C         C         1.0       0.4377191102501371  0.4647874969195733  0.500976266186494  1.0000   
         C         C         1.0       0.45678450115581115           0.4978704664248175 0.9906116219124866 1.0000   
         C         C         1.0       0.4953118479664326  0.5049934241570146  0.4794716349603039 1.0000   
         C         C         1.0       0.47541164725636614           0.4925008497059423 0.45831222094724006          1.0000   
         C         C         1.0       0.36949728316455815           0.42226183450494004          0.48156134495790315          1.0000   
         C         C         1.0       0.3658613987359228  0.3812057998062183  0.484982933844045  1.0000   
         C         C         1.0       0.3597757554924159  0.37324694394898034           0.01757769468692371          1.0000   
         C         C         1.0       0.36675111301497215           0.34280691711049327          0.020352175009901132         1.0000   
         C         C         1.0       0.3781603868049898  0.3189498754115322  0.49093784269244434          1.0000   
         C         C         1.0       0.3779751131681911  0.3316566498780495  0.4678673076214119 1.0000   
         C         C         1.0       0.37423426080026556           0.36477488350813997          0.4646738391813333 1.0000   
         C         C         1.0       0.3445499147858337  0.4663702502466359  0.02603719382967893          1.0000   
         C         C         1.0       0.33121255084008305           0.47270939143589635          0.04796456430429208          1.0000   
         C         C         1.0       0.30086551208492784           0.44343440338725904          0.0603145041075047 1.0000   
         C         C         1.0       0.28070698881882605           0.40686624597168947          0.04776863678685839          1.0000   
         C         C         1.0       0.29483429752918366           0.39945155215786166          0.02733666063706428          1.0000   
         C         C         1.0       0.3462480633086704  0.4298496145696036  0.5031267591832306 1.0000   
         C         C         1.0       0.2942736579715873  0.44543125111055787           0.08843453594641813          1.0000   
         C         C         1.0       0.3501763934245716  0.3811069839928996  0.10892136958204164          1.0000   
         C         C         1.0       0.3708535320633447  0.420206029546602   0.10539771168362917          1.0000   
         C         C         1.0       0.3525657945177971  0.43952150545358903           0.1000118445923028 1.0000   
         C         C         1.0       0.3118256684188045  0.4197234510896426  0.09770080242994032          1.0000   
         C         C         1.0       0.29086375190130864           0.37938574237096584          0.10014569133068649          1.0000   
         C         C         1.0       0.31131128698512117           0.36142961995882344          0.10636839498886778          1.0000   
         C         C         1.0       0.2491019131128745  0.4254683279541047  0.09625084930094446          1.0000   
         C         C         1.0       0.22309563635779633           0.42666245444618084          0.08004152253364276          1.0000   
         C         C         1.0       0.18469669024198165           0.4095939245959292 0.08410038821558277          1.0000   
         C         C         1.0       0.17054592290328494           0.393598960335566  0.10616357810342478          1.0000   
         C         C         1.0       0.19386474291836803           0.3921045357597715 0.12317987785966886          1.0000   
         C         C         1.0       0.23389680718111014           0.4096184777652978 0.11827951750091956          1.0000   
         C         C         1.0       0.32074685779022083           0.4918945998029807 0.1242893170013258 1.0000   
         C         C         1.0       0.3322066675161599  0.5265758498300593  0.13549095883739823          1.0000   
         C         C         1.0       0.3334919975797804  0.5571262300456994  0.12372993887969831          1.0000   
         C         C         1.0       0.3210551180870709  0.5514820137243496  0.1002702356564827 1.0000   
         C         C         1.0       0.3103921824847672  0.5179285547097672  0.08911664255011235          1.0000   
         C         C         1.0       0.3120490086471453  0.48742497924747996           0.10019015121048772          1.0000   
         H         H         1.0       0.41921990489576744           0.4610130421046759 0.4411671296622357 1.0000   
         H         H         1.0       0.41699372712452715           0.4647725261112061 0.017918979582495484         1.0000   
         H         H         1.0       0.478320243054388   0.5147448494455631  0.00416597444659387          1.0000   
         H         H         1.0       0.4911348890797924  0.5040941093354185  0.4415834998468101 1.0000   
         H         H         1.0       0.3552851946733793  0.386441513798534   0.03407005005246549          1.0000   
         H         H         1.0       0.377189398336387   0.339245433370966   0.035780173663778746         1.0000   
         H         H         1.0       0.38496000731337915           0.31958996335338136          0.4517986263782206 1.0000   
         H         H         1.0       0.37927234419652084           0.37703074632008426          0.44711500479703226          1.0000   
         H         H         1.0       0.3653332009173647  0.4893601042924488  0.015011929270172263         1.0000   
         H         H         1.0       0.34695139161341565           0.5016274415946524 0.05586900873889549          1.0000   
         H         H         1.0       0.2531927042075557  0.3817359230160297  0.054201917190227954         1.0000   
         H         H         1.0       0.29426543182006454           0.37643290322860196          0.4988283897268962 1.0000   
         H         H         1.0       0.4019709905720143  0.4389486598578968  0.10786212457297097          1.0000   
         H         H         1.0       0.3688591550951299  0.4699429433614693  0.09442090552876407          1.0000   
         H         H         1.0       0.2596362488325839  0.3612392027983257  0.0974213900482631 1.0000   
         H         H         1.0       0.29319555580812023           0.32969695579298136          0.1062795095511524 1.0000   
         H         H         1.0       0.23479596860870458           0.44164285150631194          0.06166203524510162          1.0000   
         H         H         1.0       0.16548468984849887           0.4126662462049179 0.07234866749424013          1.0000   
         H         H         1.0       0.18324570140567084           0.3811424371376178 0.1415584308093454 1.0000   
         H         H         1.0       0.2537297721488792  0.4126829825562443  0.13306374841638677          1.0000   
         H         H         1.0       0.3182580436575885  0.4694510313906921  0.13476654049843326          1.0000   
         H         H         1.0       0.3424340032896784  0.5325403677104439  0.1545690328461631 1.0000   
         H         H         1.0       0.3268864308762152  0.574414989768033   0.08896489592845373          1.0000   
         H         H         1.0       0.30061258538428803           0.5108873778792632 0.06968979258433701          1.0000   
         C         C         1.0       0.8715882311572589  0.22484585949185218           0.025745233843770615         1.0000   
         C         C         1.0       0.9035769715216233  0.22355324143235064           0.03230876960839001          1.0000   
         C         C         1.0       0.9273360312087657  0.2454312934997401  0.05081355673911446          1.0000   
         C         C         1.0       0.917993261258338   0.27047912675223756           0.06406463256668773          1.0000   
         C         C         1.0       0.8861840182084846  0.2724007463121671  0.05674246184697747          1.0000   
         C         C         1.0       0.8629669818064569  0.2489413823732334  0.03844654117702226          1.0000   
         H         H         1.0       0.911961385626669   0.2057236494299068  0.02222255905106044          1.0000   
         H         H         1.0       0.9512551267484356  0.24356025725648314           0.05768375372091818          1.0000   
         H         H         1.0       0.8780053562999061  0.28946214402380943           0.0670516816477568 1.0000   
         H         H         1.0       0.8393199313251328  0.25196637193754173           0.031653261438147985         1.0000   
         C         C         1.0       0.9552632222247199  0.35746939919585263           0.05932246992007296          1.0000   
         C         C         1.0       0.9539231871176056  0.34170884310442007           0.08223982922508198          1.0000   
         C         C         1.0       0.9655355469008661  0.36744064642181207           0.10152554535957879          1.0000   
         C         C         1.0       0.9743798862619962  0.4055192127596802  0.0994451316726935 1.0000   
         C         C         1.0       0.9751539730619222  0.4195504886662934  0.07683770501722492          1.0000   
         C         C         1.0       0.9641635054190303  0.39507511750038277           0.057151401626537875         1.0000   
         C         C         1.0       0.9425109800020628  0.29724392136069383           0.08661379488086089          1.0000   
         C         C         1.0       0.9855242713604097  0.3056432148739255  0.08992962488285036          1.0000   
         C         C         1.0       0.9993512896147589  0.30658967894687317           0.11272214503738519          1.0000   
         C         C         1.0       0.03511317676468665           0.31182432324939974          0.11598390417992527          1.0000   
         C         C         1.0       0.06156431608073424           0.32242262407895544          0.09595426460315191          1.0000   
         C         C         1.0       0.04741814077905805           0.3202457248457021 0.0739945854252343 1.0000   
         C         C         1.0       0.01139533316559005           0.3136572135420385 0.07066409357463005          1.0000   
         C         C         1.0       0.8993627728083942  0.28817343463532386           0.12542257421328518          1.0000   
         C         C         1.0       0.8839948727073069  0.27133408452366364           0.14695067230459585          1.0000   
         C         C         1.0       0.8802054195093585  0.23574033301658728           0.15271511372609292          1.0000   
         C         C         1.0       0.8888924628116684  0.21613528346495317           0.13570541684781162          1.0000   
         C         C         1.0       0.9064283734665554  0.23450001470154103           0.11374070844195093          1.0000   
         C         C         1.0       0.9139094274226609  0.2730866467889939  0.10801929351174516          1.0000   
         C         C         1.0       0.8748301306217339  0.2230155688066274  0.18018279451994948          1.0000   
         C         C         1.0       0.9971939085472664  0.28668607133812557           0.19411513926118534          1.0000   
         C         C         1.0       0.9756738078831293  0.3030239296801602  0.19813152290780006          1.0000   
         C         C         1.0       0.9371470146198508  0.28333791380498263           0.19415297924049058          1.0000   
         C         C         1.0       0.9190054087591216  0.24521163997835882           0.18691537735646105          1.0000   
         C         C         1.0       0.9419179169915084  0.2290978077465302  0.18171092957932694          1.0000   
         C         C         1.0       0.9815378944795126  0.2488365155139228  0.18585727284464562          1.0000   
         C         C         1.0       0.8513007634396281  0.1768096057598334  0.18393693291559707          1.0000   
         C         C         1.0       0.8210811187283742  0.1560783755910928  0.16936811072775856          1.0000   
         C         C         1.0       0.8012150293369102  0.1167350758513587  0.1702782457422554 1.0000   
         C         C         1.0       0.8120450615323629  0.09855211603587734           0.18640352394773663          1.0000   
         C         C         1.0       0.8418792003473128  0.11860937889496674           0.2016439683963305 1.0000   
         C         C         1.0       0.8618648457039186  0.15835848343869507           0.20060900778731028          1.0000   
         C         C         1.0       0.8597709561197917  0.24756534775089886           0.22063109998303074          1.0000   
         C         C         1.0       0.8411713820550497  0.26330025927132267           0.23473258719106677          1.0000   
         C         C         1.0       0.8083567271838872  0.2616590185265492  0.22522438193635747          1.0000   
         C         C         1.0       0.7957381233573286  0.24784114412443936           0.20252592397008884          1.0000   
         C         C         1.0       0.8166640795482988  0.23431267968069747           0.18951084537225812          1.0000   
         C         C         1.0       0.8497001877343119  0.23647360664944533           0.19706773235487823          1.0000   
         H         H         1.0       0.9510202639549892  0.34032271000410486           0.04308999995590454          1.0000   
         H         H         1.0       0.9668292916212279  0.35796486698388597           0.11947040794655707          1.0000   
         H         H         1.0       0.983520255260092   0.42453922417975765           0.11439759064997274          1.0000   
         H         H         1.0       0.9634522203039547  0.4065654019840651  0.03884906124164548          1.0000   
         H         H         1.0       0.9797305511516136  0.29560312725140986           0.12833904857093745          1.0000   
         H         H         1.0       0.040350741989644015          0.30775332961208196          0.13478847597722932          1.0000   
         H         H         1.0       0.06377209325349809           0.3256603929283328 0.05653740709177738          1.0000   
         H         H         1.0       0.004485176265274893          0.3170460190709503 0.05282942146013833          1.0000   
         H         H         1.0       0.9005614247787598  0.31539067693887735           0.12273121711831741          1.0000   
         H         H         1.0       0.8755844991942294  0.2879870248711128  0.15815279176075003          1.0000   
         H         H         1.0       0.8852826759960852  0.18734416452580704           0.13740215316015733          1.0000   
         H         H         1.0       0.9129713607615577  0.2159920446624359  0.1013327547754458 1.0000   
         H         H         1.0       0.9863783651018758  0.3337521916850076  0.20403521368868915          1.0000   
         H         H         1.0       0.9217459490594553  0.29949710766618604           0.19501694674132694          1.0000   
         H         H         1.0       0.9288185865055132  0.19988763235310125           0.1737899352307741 1.0000   
         H         H         1.0       0.001109565716848778          0.2365638430847633 0.1832078931518837 1.0000   
         H         H         1.0       0.8135552016077054  0.16997839969610024           0.15575235088346914          1.0000   
         H         H         1.0       0.7747773256405668  0.10023647358182514           0.15883842839479004          1.0000   
         H         H         1.0       0.849979794241657   0.10482238870695015           0.2147135208959274 1.0000   
         H         H         1.0       0.8817822751428288  0.17536761451032395           0.21442673994304592          1.0000   
         H         H         1.0       0.8849787457534033  0.25010598133865436           0.2279440032603531 1.0000   
         H         H         1.0       0.8507773761819689  0.2756773925730595  0.2516168175481168 1.0000   
         H         H         1.0       0.7676020592724717  0.24061129502342643           0.19697824831721453          1.0000   
         H         H         1.0       0.8067793830252312  0.2181668642465202  0.1732664115744629 1.0000   
         C         C         1.0       0.4666000565199633  0.24392088426468087           0.3365078596758815 1.0000   
         C         C         1.0       0.49421679140768915           0.23359871503749507          0.3345968619426411 1.0000   
         C         C         1.0       0.4935065604131356  0.2065136384634227  0.34975259772947404          1.0000   
         C         C         1.0       0.46623975648549987           0.18885638957465947          0.3673475822346765 1.0000   
         C         C         1.0       0.4378574178621528  0.19894427306933418           0.369968548935641  1.0000   
         C         C         1.0       0.44033023201685745           0.2277812022949521 0.3557713786363242 1.0000   
         H         H         1.0       0.516139232210429   0.2464543362842104  0.32083947491472087          1.0000   
         H         H         1.0       0.5116655586286312  0.19310230768268738           0.34689599212490074          1.0000   
         H         H         1.0       0.4140463183504279  0.18335911197627597           0.3823192406696739 1.0000   
         H         H         1.0       0.41682319520424926           0.23464228828804   0.35695821402859595          1.0000   
         C         C         1.0       0.5321998818772207  0.18548335746421624           0.3934788235220245 1.0000   
         C         C         1.0       0.500525090179384   0.1503626600977847  0.38535547942431386          1.0000   
         C         C         1.0       0.5017028019388146  0.11748463764894913           0.38888592529526084          1.0000   
         C         C         1.0       0.5332180122623469  0.11760986407014754           0.39795401725866736          1.0000   
         C         C         1.0       0.5636159307247243  0.15155365303071613           0.4056559840637212 1.0000   
         C         C         1.0       0.5619121565541906  0.18527803890836864           0.40450745650778547          1.0000   
         C         C         1.0       0.46172023123520944           0.1512265669974843 0.3808665398902706 1.0000   
         C         C         1.0       0.4329542989293027  0.11836226286704947           0.3633648782017092 1.0000   
         C         C         1.0       0.3924905372478225  0.10445995593669914           0.3669152412263889 1.0000   
         C         C         1.0       0.3656782373704573  0.07827268097170062           0.35158953301386037          1.0000   
         C         C         1.0       0.3785485814973174  0.06572042320142008           0.3323106135373931 1.0000   
         C         C         1.0       0.41705682621293116           0.07774937843998415          0.3292120460738291 1.0000   
         C         C         1.0       0.4432527839755773  0.10733188258797087           0.3425822871889814 1.0000   
         C         C         1.0       0.4302141076631696  0.11196679096811979           0.4207347724722068 1.0000   
         C         C         1.0       0.4180776816739684  0.10871311161550105           0.444035337551514  1.0000   
         C         C         1.0       0.418772307399366   0.14003920012564644           0.45725730768361056          1.0000   
         C         C         1.0       0.4399762007704471  0.17680044296825537           0.44595106354995073          1.0000   
         C         C         1.0       0.4541528811691969  0.1801612333012014  0.4224956388838424 1.0000   
         C         C         1.0       0.44520260447292614           0.14733692891917005          0.4082060286712993 1.0000   
         C         C         1.0       0.39904265665547356           0.1336447495816485 0.4821496021290483 1.0000   
         C         C         1.0       0.3118438236746117  0.040574376504393966         0.029301700445737586         1.0000   
         C         C         1.0       0.34160204426447743           0.06481633691183528          0.04284052090781382          1.0000   
         C         C         1.0       0.3733322771197449  0.09697633044815591           0.03489227781469537          1.0000   
         C         C         1.0       0.35457879968124156           0.09550307271909744          0.4800623020168132 1.0000   
         C         C         1.0       0.33438356208494374           0.08237075178797254          0.4579966434623907 1.0000   
         C         C         1.0       0.2997439263155236  0.04787089022169233           0.45552251074550176          1.0000   
         C         C         1.0       0.3899644360025546  0.16664697071853124           0.4900034488596913 1.0000   
         C         C         1.0       0.3906542486324892  0.19725078000404922           0.027921185281814677         1.0000   
         C         C         1.0       0.37265611190502845           0.21833901259104668          0.0317418677596162 1.0000   
         C         C         1.0       0.3548540875978802  0.2236665390132901  0.012693276826770808         1.0000   
         C         C         1.0       0.356222643309899   0.20175544494050277           0.4796108449494918 1.0000   
         C         C         1.0       0.36652240058980295           0.17406565606529703          0.47411280565064573          1.0000   
         C         C         1.0       0.46595881029126573           0.16467872030749087          0.5025334973880959 1.0000   
         C         C         1.0       0.5102525397629191  0.223490613548257   0.021179448891640792         1.0000   
         C         C         1.0       0.5192080395177502  0.20138939111164506           0.033562701988843896         1.0000   
         C         C         1.0       0.4958577067936876  0.1624338070756461  0.03301453206762886          1.0000   
         C         C         1.0       0.46135327608853327           0.1445748794919967 0.021289084730078296         1.0000   
         C         C         1.0       0.4296702168338673  0.13315557018800728           0.49922214012532545          1.0000   
         H         H         1.0       0.5317075865609261  0.21316480987551245           0.39357871882324014          1.0000   
         H         H         1.0       0.47894259910530745           0.09028005973684002          0.38326954500374694          1.0000   
         H         H         1.0       0.5328046559260236  0.09036513850263504           0.39576374422562843          1.0000   
         H         H         1.0       0.5865507819017707  0.21336148217225423           0.4096925214254637 1.0000   
         H         H         1.0       0.383258077034246   0.11674476754927943           0.38239434714462   1.0000   
         H         H         1.0       0.3355076433397064  0.06958135806119033           0.3547919106665193 1.0000   
         H         H         1.0       0.42777242038414515           0.06906249286075418          0.3136292298878615 1.0000   
         H         H         1.0       0.4727885044487236  0.1186344028312614  0.33836752445823737          1.0000   
         H         H         1.0       0.423088737627266   0.08521939460044557           0.41135841751150315          1.0000   
         H         H         1.0       0.4017341445209289  0.08076883822521015           0.45002295226423006          1.0000   
         H         H         1.0       0.44262595504896657           0.20103648216930045          0.45602666404574993          1.0000   
         H         H         1.0       0.4752394528591902  0.20944960834728105           0.4157187613722497 1.0000   
         H         H         1.0       0.3406498638890972  0.05760146720637944           0.06124554066501663          1.0000   
         H         H         1.0       0.39483718547510754           0.11704863092727458          0.04734786664752829          1.0000   
         H         H         1.0       0.34591194412589804           0.09629956519585334          0.441609427612583  1.0000   
         H         H         1.0       0.2876070662409405  0.03844218385750038           0.4383788080437991 1.0000   
         H         H         1.0       0.4091346117500355  0.19908902660827357           0.041391377834670506         1.0000   
         H         H         1.0       0.3762618509433629  0.23364603404424078           0.04851074504365522          1.0000   
         H         H         1.0       0.3425322397008988  0.21044400429716734           0.46635784005891007          1.0000   
         H         H         1.0       0.35698599435878087           0.15879730172632592          0.45620050034710447          1.0000   
         H         H         1.0       0.47087693034293593           0.19052083830708164          0.49420043796108915          1.0000   
         H         H         1.0       0.5281676897605383  0.253938794359247   0.020220832501819653         1.0000   
         H         H         1.0       0.506349080870348   0.1451392383140341  0.042100314796634564         1.0000   
         H         H         1.0       0.4434086371811101  0.11248829738977605           0.021009847238330773         1.0000   
         C         C         1.0       0.832503333783492   0.18523311981669974           0.47670738647223765          1.0000   
         C         C         1.0       0.8462596374335253  0.18500142667626168           0.45433186018735633          1.0000   
         C         C         1.0       0.8227080312718602  0.1640711871175028  0.435892784350222  1.0000   
         C         C         1.0       0.7840616760243542  0.15057020789059122           0.4378336966458011 1.0000   
         C         C         1.0       0.7683042415117776  0.15322355116421194           0.46023037665193983          1.0000   
         C         C         1.0       0.7922287608244313  0.1705382720800866  0.4800264219688742 1.0000   
         H         H         1.0       0.87622778010657    0.19723416402152236           0.4501893965727001 1.0000   
         H         H         1.0       0.8362397371524086  0.1591243203040668  0.4198174173002156 1.0000   
         H         H         1.0       0.7371834953520261  0.13932512655110363           0.4631684082532968 1.0000   
         H         H         1.0       0.7811227993518545  0.16928853850494968           0.4983288783780777 1.0000   
         C         C         1.0       0.7244809499884701  0.1708335166581227  0.4189467743679905 1.0000   
         C         C         1.0       0.7207229585535361  0.1348125488988698  0.41513190394110744          1.0000   
         C         C         1.0       0.6837785980898052  0.10577437802911709           0.4073572124802359 1.0000   
         C         C         1.0       0.6557706921038144  0.1136604189926657  0.40199220769719685          1.0000   
         C         C         1.0       0.6623925221083222  0.15134972900048713           0.40464182963113193          1.0000   
         C         C         1.0       0.6957496993958673  0.1779697158048456  0.41290368282146495          1.0000   
         C         C         1.0       0.7577406170759124  0.1301913210393201  0.4147403507983851 1.0000   
         C         C         1.0       0.7505054573543553  0.08568356691681475           0.4168542514557345 1.0000   
         C         C         1.0       0.7746516873058301  0.07439589347455973           0.40401150369642347          1.0000   
         C         C         1.0       0.7645425994508083  0.03709556513922739           0.40172721710163134          1.0000   
         C         C         1.0       0.7325917611869919  0.009422542214249095         0.41582432766313365          1.0000   
         C         C         1.0       0.7113942522904804  0.02095169848157265           0.4298383543612484 1.0000   
         C         C         1.0       0.7222961759216869  0.058956158941027084         0.4315916887428462 1.0000   
         C         C         1.0       0.7596542320052352  0.12829801194337942           0.36801298390041   1.0000   
         C         C         1.0       0.7732370022409621  0.1427572023822592  0.3462902779363004 1.0000   
         C         C         1.0       0.8068564111505168  0.17743607333818653           0.3432499724006708 1.0000   
         C         C         1.0       0.8218440029263722  0.20093537210602427           0.3639509127255175 1.0000   
         C         C         1.0       0.8069757743136955  0.1878605749821146  0.3861724768528149 1.0000   
         C         C         1.0       0.7773042864848823  0.14895442761135047           0.389148299588779  1.0000   
         C         C         1.0       0.8292764325116637  0.1890204928310242  0.3174533083366188 1.0000   
         C         C         1.0       0.8044883189169997  0.08372004026886563           0.2772424081310709 1.0000   
         C         C         1.0       0.8106639410148365  0.11446871887419464           0.2646995191041799 1.0000   
         C         C         1.0       0.8202947193047018  0.14922790696843075           0.2766941489282767 1.0000   
         C         C         1.0       0.8265719812230596  0.1534381984666233  0.3014666130572647 1.0000   
         C         C         1.0       0.8246190598091294  0.12271163122995069           0.31332084254134585          1.0000   
         C         C         1.0       0.8157571277402439  0.0890084208638545  0.3015483508342955 1.0000   
         C         C         1.0       0.8765260282073978  0.2165115433071895  0.31798685715443475          1.0000   
         C         C         1.0       0.8978289930551887  0.21004741344586078           0.3356906640946636 1.0000   
         C         C         1.0       0.9372846468819583  0.23336842663180288           0.33610197096880184          1.0000   
         C         C         1.0       0.9550802852810099  0.26134547368468575           0.3190635207899299 1.0000   
         C         C         1.0       0.9369591929618085  0.26495054249208394           0.2993263279174434 1.0000   
         C         C         1.0       0.8966120890821329  0.2403535301176502  0.29863845763083047          1.0000   
         C         C         1.0       0.8223143753145198  0.25087639916067667           0.3073109048798669 1.0000   
         C         C         1.0       0.8025802628745746  0.2645343798435281  0.29520492802021486          1.0000   
         C         C         1.0       0.7714942751026115  0.2405813150170436  0.28046967167030457          1.0000   
         C         C         1.0       0.7563747281989444  0.2009156949110729  0.2806823584557535 1.0000   
         C         C         1.0       0.7734012730522537  0.18671096556767344           0.2958529183352895 1.0000   
         C         C         1.0       0.8096145604524562  0.2112458171342226  0.3068517296453396 1.0000   
         H         H         1.0       0.7497759470134451  0.19303039507650366           0.4279907480355765 1.0000   
         H         H         1.0       0.677087896787807   0.07761146188695227           0.401508679955799  1.0000   
         H         H         1.0       0.6278106415703847  0.09060718283751    0.3961633444475789 1.0000   
         H         H         1.0       0.7024459005505785  0.20742437357640733           0.41518329392839987          1.0000   
         H         H         1.0       0.7956697470972373  0.09579811010049524           0.3923331803934379 1.0000   
         H         H         1.0       0.7831771275100969  0.03087994320272739           0.38911476564512476          1.0000   
         H         H         1.0       0.6858375416750051  0.0009494396779217148        0.4394809712000312 1.0000   
         H         H         1.0       0.7051203499741099  0.06618021325807061           0.44256358689511893          1.0000   
         H         H         1.0       0.7326266615569179  0.10024718871247223           0.3707423413393995 1.0000   
         H         H         1.0       0.7579269199812254  0.12321585468024843           0.33225898832832956          1.0000   
         H         H         1.0       0.8428504794485729  0.23078685964226484           0.3626611623115161 1.0000   
         H         H         1.0       0.817363002559553   0.2105489247836576  0.4014770361871644 1.0000   
         H         H         1.0       0.8014925840033421  0.11004749499768202           0.24640013369103117          1.0000   
         H         H         1.0       0.8217285857955643  0.1736443659206512  0.2666043618721706 1.0000   
         H         H         1.0       0.8319574776433827  0.1216035729585591  0.33230448682828373          1.0000   
         H         H         1.0       0.8133879443606652  0.06477354498809011           0.3114924652906808 1.0000   
         H         H         1.0       0.8831971205685638  0.189689466890798   0.3495834438395605 1.0000   
         H         H         1.0       0.9527193864063435  0.22780108599555235           0.34994101380767956          1.0000   
         H         H         1.0       0.9480401751560723  0.288707751319737   0.2877726656938806 1.0000   
         H         H         1.0       0.8824689352878946  0.2432972573763891  0.2839237197371139 1.0000   
         H         H         1.0       0.8495022674482088  0.2701229092366896  0.3141319322434333 1.0000   
         H         H         1.0       0.8148871110500389  0.2949060318439588  0.29412262925981103          1.0000   
         H         H         1.0       0.7313580917362859  0.18302079814947517           0.2702107677471063 1.0000   
         H         H         1.0       0.7633823212017443  0.15554751038844297           0.29534762695577194          1.0000   
         C         C         1.0       0.2638934754514768  0.8446377156337669  0.1888810148030994 1.0000   
         C         C         1.0       0.24642833541116263           0.8506048505478165 0.1698069350516584 1.0000   
         C         C         1.0       0.26941425552194187           0.8689483779936044 0.1494477744653278 1.0000   
         C         C         1.0       0.30741682019153627           0.8762465607919209 0.14652325892572307          1.0000   
         C         C         1.0       0.32293532827471383           0.8683071708912156 0.16628345833632843          1.0000   
         C         C         1.0       0.30226698860310164           0.8533585297471765 0.18717833138414725          1.0000   
         H         H         1.0       0.2157693753423131  0.8415835836492193  0.17047390655754457          1.0000   
         H         H         1.0       0.2591943604736882  0.8780201634274295  0.13344858392766423          1.0000   
         H         H         1.0       0.35176303365863554           0.8734952358526781 0.16791110011806826          1.0000   
         H         H         1.0       0.31517374264611947           0.8482599986443822 0.2020080072972003 1.0000   
         C         C         1.0       0.37393795478178926           0.8688339311915707 0.12163093026342206          1.0000   
         C         C         1.0       0.3742411429989772  0.903316086245253   0.1240157826006158 1.0000   
         C         C         1.0       0.408175272325077   0.9372509349747447  0.11894799335235903          1.0000   
         C         C         1.0       0.44288021199300837           0.9378281611729987 0.1155781392291914 1.0000   
         C         C         1.0       0.44298888132873976           0.9031011368534072 0.11464270378505129          1.0000   
         C         C         1.0       0.40730587285238806           0.8685453572921181 0.11756722315146703          1.0000   
         C         C         1.0       0.334905621796961   0.9029505637449149  0.1249975260371434 1.0000   
         C         C         1.0       0.3367668662102744  0.9447803825956868  0.13049752944367607          1.0000   
         C         C         1.0       0.3170616159124853  0.9569512390022801  0.11553254253257252          1.0000   
         C         C         1.0       0.3229020547971225  0.9942075818677896  0.11761596810384287          1.0000   
         C         C         1.0       0.3478325436981023  0.019641467381809122         0.13461768400518298          1.0000   
         C         C         1.0       0.3650986293114866  0.006989190372691967         0.14985983846562392          1.0000   
         C         C         1.0       0.36046437789975017           0.9711191106649686 0.14709880977588924          1.0000   
         C         C         1.0       0.33812760422109467           0.9079541141543184 0.07748034163460561          1.0000   
         C         C         1.0       0.3262031595437232  0.8929837158668732  0.05399232607073296          1.0000   
         C         C         1.0       0.29505413307998396           0.8564533034566798 0.050554492955934956         1.0000   
         C         C         1.0       0.27680087243569146           0.8356155827426672 0.07115283923446605          1.0000   
         C         C         1.0       0.28743007244751256           0.851500859706765  0.0942281454460288 1.0000   
         C         C         1.0       0.31820582725192953           0.8873900295528371 0.09792112545599035          1.0000   
         C         C         1.0       0.27590203211572095           0.8398518668425493 0.02436414485978795          1.0000   
         C         C         1.0       0.2520575864128479  0.9347416521361598  0.01922538824775807          1.0000   
         C         C         1.0       0.27715855796690836           0.9316939747193669 0.002530645919947716         1.0000   
         C         C         1.0       0.2829962207698356  0.9009722871157304  0.0021514742335371206        1.0000   
         C         C         1.0       0.26174506300511546           0.869180046246494  0.01814016405207635          1.0000   
         C         C         1.0       0.2342877668558034  0.8713923505451843  0.034004623951485013         1.0000   
         C         C         1.0       0.22936535336714373           0.9025649621569439 0.03410653220561037          1.0000   
         C         C         1.0       0.24268578477607095           0.795250059045118  0.02416459239701609          1.0000   
         C         C         1.0       0.25317188542662705           0.7696809695173784 0.03095474345436292          1.0000   
         C         C         1.0       0.22512290784731445           0.7296392203560411 0.031074255802903007         1.0000   
         C         C         1.0       0.18779802503705542           0.7165922406179108 0.023701061601934796         1.0000   
         C         C         1.0       0.1793587516643977  0.742565336019443   0.014302481594802012         1.0000   
         C         C         1.0       0.20533998796150416           0.7816468398323796 0.01472267462837242          1.0000   
         C         C         1.0       0.29640214027621864           0.8310116104550117 0.9806414206731034 1.0000   
         C         C         1.0       0.31930106880118436           0.8314292774440151 0.47503344110170465          1.0000   
         C         C         1.0       0.35901430259631517           0.8542203498372147 0.4697986235348222 1.0000   
         C         C         1.0       0.3727313432756612  0.8606706402465475  0.9917427821543112 1.0000   
         C         C         1.0       0.34725060284304093           0.8552529659977953 0.00904530915344884          1.0000   
         C         C         1.0       0.3080383554325022  0.8422816124667214  0.0037958394208271106        1.0000   
         H         H         1.0       0.34769351726490927           0.8426111647046826 0.12280312175605859          1.0000   
         H         H         1.0       0.40872569722551216           0.9642717778579493 0.12089190839641079          1.0000   
         H         H         1.0       0.4673805775387817  0.96436281397873    0.11257118427182423          1.0000   
         H         H         1.0       0.4081796525869522  0.8436945665830288  0.11737839307496535          1.0000   
         H         H         1.0       0.3036456764038726  0.9418263587039455  0.09930619437743689          1.0000   
         H         H         1.0       0.3033981347791287  0.9999434504296245  0.1066568179721313 1.0000   
         H         H         1.0       0.38223284961731746           0.02460578929152161          0.1648883117867182 1.0000   
         H         H         1.0       0.37147764546199613           0.9610905425096472 0.1601985674635437 1.0000   
         H         H         1.0       0.3627436151834297  0.9365681896635454  0.0791733664352171 1.0000   
         H         H         1.0       0.3372638343070361  0.9121208073467492  0.03857605469377761          1.0000   
         H         H         1.0       0.2510147455499106  0.8069544112316768  0.07099086786901933          1.0000   
         H         H         1.0       0.272275777415137   0.8327966955999847  0.1087930802050967 1.0000   
         H         H         1.0       0.3350738079845032  0.9810710524226371  0.48431619668944975          1.0000   
         H         H         1.0       0.3065008366574897  0.9045453579887773  0.9910227565768115 1.0000   
         H         H         1.0       0.22050856394040863           0.8535423550977661 0.05032485108093445          1.0000   
         H         H         1.0       0.21023848576137844           0.9037420721160792 0.04695123583040978          1.0000   
         H         H         1.0       0.2810491777649716  0.7779794785919407  0.03654197590448278          1.0000   
         H         H         1.0       0.2314660111946369  0.7086936153094399  0.037687485857795834         1.0000   
         H         H         1.0       0.14951293224864798           0.7319278979998449 0.010922735056182988         1.0000   
         H         H         1.0       0.1996141674925265  0.8041370309493013  0.008301078412173644         1.0000   
         H         H         1.0       0.27081766010291475           0.8152318936230143 0.49900061291126246          1.0000   
         H         H         1.0       0.3013395205479903  0.8131267555590634  0.46092149342066474          1.0000   
         H         H         1.0       0.4044900932924062  0.8754174835183003  0.996185834818207  1.0000   
         H         H         1.0       0.357367408446574   0.8607145701507687  0.026980446066592955         1.0000   
         C         C         1.0       0.2660186941431809  0.442481230176191   0.3587559357967215 1.0000   
         C         C         1.0       0.2415470548080435  0.40747428050844386           0.3473305915245617 1.0000   
         C         C         1.0       0.21401502686560397           0.40496829888757246          0.3324219321877451 1.0000   
         C         C         1.0       0.20872389162505833           0.43667829880180964          0.32884754091442836          1.0000   
         C         C         1.0       0.23756897852659928           0.47182415218559115          0.3368774935970963 1.0000   
         C         C         1.0       0.2642097827202817  0.4741643268124555  0.3523890458695177 1.0000   
         H         H         1.0       0.24771786345232602           0.38478299318068787          0.3509785245389692 1.0000   
         H         H         1.0       0.19352950018825252           0.3762809346448146 0.3242611343206993 1.0000   
         H         H         1.0       0.23640352046685992           0.49538390779963903          0.33393508168472696          1.0000   
         H         H         1.0       0.2863675990014989  0.5028541436475064  0.35856867951920834          1.0000   
         C         C         1.0       0.16034726071390878           0.4765378368607569 0.3433595931535701 1.0000   
         C         C         1.0       0.16196381266675794           0.46362912132527706          0.32004168768627256          1.0000   
         C         C         1.0       0.1447815288244201  0.4745480543433395  0.30251689979897406          1.0000   
         C         C         1.0       0.13275703190882704           0.5004651433335437 0.3067789409476171 1.0000   
         C         C         1.0       0.1351960963426426  0.5136244706879903  0.3304123171487224 1.0000   
         C         C         1.0       0.14669316699637946           0.4998359286438377 0.34951959701298   1.0000   
         C         C         1.0       0.17689323610972596           0.4358015019651949 0.3117613041113177 1.0000   
         C         C         1.0       0.1356005478481108  0.3963716434092861  0.3134662705533138 1.0000   
         C         C         1.0       0.11494829347898607           0.38295966957395317          0.2925369924708898 1.0000   
         C         C         1.0       0.0805517585026297  0.34862299862930396           0.2926459667502537 1.0000   
         C         C         1.0       0.06646990866615421           0.32917211337888963          0.3131651082221717 1.0000   
         C         C         1.0       0.08633129554951412           0.34317118396036916          0.3349889930647971 1.0000   
         C         C         1.0       0.12081129069800675           0.37598182712996087          0.33502781173962654          1.0000   
         C         C         1.0       0.21316659230257984           0.4787374932471138 0.27218691918386445          1.0000   
         C         C         1.0       0.2260977379497881  0.48286267390095045           0.24794290043615685          1.0000   
         C         C         1.0       0.2247878686202707  0.4508285541870487  0.23586873639892397          1.0000   
         C         C         1.0       0.21376276028390911           0.41771950269258573          0.24940271286586652          1.0000   
         C         C         1.0       0.19969778224910087           0.41414604033046404          0.27315932503989027          1.0000   
         C         C         1.0       0.1984258645910129  0.44443103574345677           0.2851621506480173 1.0000   
         C         C         1.0       0.22986140947570724           0.4511338337070766 0.20723024132386142          1.0000   
         C         C         1.0       0.10892129514803364           0.36354538108076057          0.18946487542863283          1.0000   
         C         C         1.0       0.11971778730052972           0.4022316549301321 0.19069550165446536          1.0000   
         C         C         1.0       0.15539730726513437           0.4278092458093012 0.19898924347608404          1.0000   
         C         C         1.0       0.18617153780068826           0.4193595602244193 0.19867248812808977          1.0000   
         C         C         1.0       0.1736778691531792  0.38070914317421933           0.19488653377724238          1.0000   
         C         C         1.0       0.1364954750395966  0.35250908419177557           0.1893729119443402 1.0000   
         C         C         1.0       0.26306143670662324           0.4401504028726288 0.2033806414661097 1.0000   
         C         C         1.0       0.29549184222433006           0.45625243166117035          0.21704359901476264          1.0000   
         C         C         1.0       0.32571076519587644           0.4493740844131286 0.21240084886624458          1.0000   
         C         C         1.0       0.32551638473461275           0.4281792021025203 0.19195576673199716          1.0000   
         C         C         1.0       0.295175186391256   0.4162705051287742  0.17642762995315908          1.0000   
         C         C         1.0       0.2639160614974984  0.4206954575924116  0.18225360691627882          1.0000   
         C         C         1.0       0.23372013451512752           0.4907947091748757 0.16936175164446163          1.0000   
         C         C         1.0       0.25257190778381056           0.5233033271268236 0.15506098614818437          1.0000   
         C         C         1.0       0.2823712218332846  0.5566405928407514  0.16365763200850808          1.0000   
         C         C         1.0       0.29492644130969736           0.558124620865902  0.18689293546353805          1.0000   
         C         C         1.0       0.2793812884637069  0.5248768901172457  0.20058351573920047          1.0000   
         C         C         1.0       0.24727479996052446           0.49028529882648353          0.19157463366946678          1.0000   
         H         H         1.0       0.170039669910111   0.466392980156888   0.3589163765798415 1.0000   
         H         H         1.0       0.13976274203220324           0.46179016819528124          0.2840872412442164 1.0000   
         H         H         1.0       0.12493437056816474           0.5113496437112379 0.29173813764268236          1.0000   
         H         H         1.0       0.14667823133593677           0.5064956549037118 0.36840692943126435          1.0000   
         H         H         1.0       0.128096450723645   0.3998236918378835  0.27718270844155696          1.0000   
         H         H         1.0       0.06563764614738164           0.33536751662742753          0.27603641741757184          1.0000   
         H         H         1.0       0.07464109462502029           0.3302742068379749 0.3521998005076433 1.0000   
         H         H         1.0       0.13274175825488865           0.3890805029219404 0.3517957620188789 1.0000   
         H         H         1.0       0.2198774031363705  0.5047814147508812  0.2817433674494787 1.0000   
         H         H         1.0       0.23123282450344382           0.5084283508529073 0.23782370560152388          1.0000   
         H         H         1.0       0.214383266321388   0.3945717913941728  0.2404714744838311 1.0000   
         H         H         1.0       0.1899643585533582  0.38674685729644326           0.28137870773084805          1.0000   
         H         H         1.0       0.09909264470998262           0.41258547502586146          0.1888937639490699 1.0000   
         H         H         1.0       0.16000820428415383           0.45800132716381675          0.20033555568282851          1.0000   
         H         H         1.0       0.19425199810689187           0.3723220272424206 0.1968643380336552 1.0000   
         H         H         1.0       0.12944507900333785           0.3249535665142051 0.18521565211061072          1.0000   
         H         H         1.0       0.29882056674661145           0.47243936377130036          0.2340591825763392 1.0000   
         H         H         1.0       0.34740805192317353           0.4586703910805487 0.22625096260621141          1.0000   
         H         H         1.0       0.2967230241932856  0.4026188174447303  0.16004270195255763          1.0000   
         H         H         1.0       0.2418137220347828  0.414229887643556   0.17044708065045516          1.0000   
         H         H         1.0       0.20989240074100085           0.46556488200080165          0.16114274881627783          1.0000   
         H         H         1.0       0.24300012455396713           0.5190901564711587 0.13724728257108235          1.0000   
         H         H         1.0       0.31827166133963763           0.58385171223924   0.19560879608767895          1.0000   
         H         H         1.0       0.2919697957335026  0.5253843082946772  0.21752223732036102          1.0000   
         C         C         1.0       0.9255766445697925  0.661362594247534   0.11758830949988376          1.0000   
         C         C         1.0       0.9648308175935584  0.6856803322323851  0.11094102165839091          1.0000   
         C         C         1.0       0.9796738103502519  0.6749334773203988  0.09082587294029781          1.0000   
         C         C         1.0       0.9578566851244965  0.6401447307829191  0.07856536407179288          1.0000   
         C         C         1.0       0.917424521732065   0.6186677889177024  0.0848554344314291 1.0000   
         C         C         1.0       0.9025741239736356  0.6291654982828909  0.1049216229940902 1.0000   
         H         H         1.0       0.9829040599536575  0.7132213576851917  0.12024787783994534          1.0000   
         H         H         1.0       0.009868756325085215          0.6939692324476454 0.08605399305011095          1.0000   
         H         H         1.0       0.901899517078111   0.5922304787095507  0.07410112491461023          1.0000   
         H         H         1.0       0.8726193463641115  0.6091053528871595  0.10905950708530608          1.0000   
         C         C         1.0       0.9581361283521145  0.5672724021371144  0.08637459424565185          1.0000   
         C         C         1.0       0.9630446634750603  0.5804338461368413  0.06283334657804666          1.0000   
         C         C         1.0       0.9631846068068168  0.5546947352958645  0.04603173924774886          1.0000   
         C         C         1.0       0.9587252060470992  0.5194133795310248  0.05242478403412622          1.0000   
         C         C         1.0       0.9557937256669264  0.5082042649955754  0.07573344673768921          1.0000   
         C         C         1.0       0.9551184495458658  0.5326123793674775  0.0931323730070038 1.0000   
         C         C         1.0       0.9761291767371714  0.6259404953733773  0.05800141692460429          1.0000   
         C         C         1.0       0.01926234286454731           0.6422832440062084 0.05668368385828471          1.0000   
         C         C         1.0       0.03690088962671603           0.6453363577579119 0.03399412517531521          1.0000   
         C         C         1.0       0.07498744606250216           0.6539824052430203 0.031236987189648655         1.0000   
         C         C         1.0       0.0970858918514207  0.6594254874635087  0.051768068501428226         1.0000   
         C         C         1.0       0.08006608408679453           0.6562119603875518 0.07446500044442328          1.0000   
         C         C         1.0       0.04262053274596855           0.6493736604279131 0.0767613109722746 1.0000   
         C         C         1.0       0.9333501849219806  0.6056288759731137  0.0200402457313925 1.0000   
         C         C         1.0       0.9302583310666004  0.6135304612185336  0.490596620513913  1.0000   
         C         C         1.0       0.9339923210180828  0.6457317654783747  0.48128724225637165          1.0000   
         C         C         1.0       0.9441389617959673  0.6772146775332847  0.497024478825619  1.0000   
         C         C         1.0       0.9723616613992513  0.6729281628593138  0.02847222148971744          1.0000   
         C         C         1.0       0.9582019848572397  0.6346969401120554  0.03504626014724154          1.0000   
         C         C         1.0       0.9235079815624126  0.6468454703136071  0.45379332369683745          1.0000   
         C         C         1.0       0.03761153323463366           0.7365703853482585 0.42546144122043933          1.0000   
         C         C         1.0       0.02940413046186165           0.6996547462106403 0.43093577337715555          1.0000   
         C         C         1.0       0.9940364679217911  0.6736443632488154  0.4414725800052238 1.0000   
         C         C         1.0       0.9665332086511811  0.6829050232898001  0.4452972373152335 1.0000   
         C         C         1.0       0.9739861829033678  0.7201473815516293  0.44064666312326706          1.0000   
         C         C         1.0       0.010442684328740848          0.7477065135148083 0.4308087921984777 1.0000   
         C         C         1.0       0.8885458917637845  0.6547076511167188  0.4547167617287773 1.0000   
         C         C         1.0       0.8613624016602905  0.6403008381945178  0.4731509341466884 1.0000   
         C         C         1.0       0.8292839027744782  0.6423019655295817  0.47351408838879744          1.0000   
         C         C         1.0       0.8224917952108527  0.6611328171832216  0.4544608686677667 1.0000   
         C         C         1.0       0.84786682234233    0.6758856245991404  0.43560367979488523          1.0000   
         C         C         1.0       0.8800982596320224  0.6726854956514364  0.436351989254106  1.0000   
         C         C         1.0       0.9165728089851335  0.6144374326797353  0.4118232067147269 1.0000   
         C         C         1.0       0.9046347105293303  0.5847736820643534  0.39655950570822507          1.0000   
         C         C         1.0       0.8807441381995571  0.5473442812940871  0.4052950123470342 1.0000   
         C         C         1.0       0.8667617709676086  0.5390310758389166  0.4288029333778687 1.0000   
         C         C         1.0       0.8802344157113183  0.5708134253913212  0.444512595143266  1.0000   
         C         C         1.0       0.9074268218513851  0.6096495707923583  0.4370215237696722 1.0000   
         H         H         1.0       0.9654096953739211  0.5864157435146606  0.10033689051509417          1.0000   
         H         H         1.0       0.9725615789554811  0.5638285776581748  0.028049269090248068         1.0000   
         H         H         1.0       0.9640362869350253  0.5025459862677122  0.0390003644165624 1.0000   
         H         H         1.0       0.9494981666280058  0.5232616749447714  0.11152742854172717          1.0000   
         H         H         1.0       0.02166653149396436           0.6384144460752527 0.017774636433619102         1.0000   
         H         H         1.0       0.08656098308797439           0.6560111112749151 0.012702407400929604         1.0000   
         H         H         1.0       0.09814253791624296           0.6623671100130787 0.08960517211172038          1.0000   
         H         H         1.0       0.030472026231668226          0.6446136736497162 0.09474653616368928          1.0000   
         H         H         1.0       0.917816158670557   0.575836729092657   0.026992793364578882         1.0000   
         H         H         1.0       0.9236969465474054  0.5892978019177018  0.4789007507207939 1.0000   
         H         H         1.0       0.9495950464489977  0.7041504671466702  0.49100030895796676          1.0000   
         H         H         1.0       0.992897618514427   0.6947204510736832  0.04192718435448194          1.0000   
         H         H         1.0       0.048570586405018795          0.6875387711485824 0.4303381160969644 1.0000   
         H         H         1.0       0.9858910801928582  0.6424346857930632  0.44521097761405626          1.0000   
         H         H         1.0       0.9511810873133223  0.7266759984340617  0.44237803117285585          1.0000   
         H         H         1.0       0.015345708214558558          0.7766584731249178 0.4282788149655588 1.0000   
         H         H         1.0       0.8611437925238008  0.6219106066510791  0.48909899292231057          1.0000   
         H         H         1.0       0.8092338876535707  0.6271342258160449  0.488285381223112  1.0000   
         H         H         1.0       0.8430265006537124  0.686759557164161   0.4185735518135872 1.0000   
         H         H         1.0       0.8996081484514183  0.6787313632294418  0.4218654186962781 1.0000   
         H         H         1.0       0.9343266624892616  0.6420968741848478  0.4048791297399953 1.0000   
         H         H         1.0       0.9128867081861122  0.5916793206231856  0.3771306267890577 1.0000   
         H         H         1.0       0.8494390454010933  0.5095165003311992  0.4349727399024369 1.0000   
         H         H         1.0       0.8673786213452765  0.5671115338563807  0.46303442505381703          1.0000   
         C         C         1.0       0.464905298579237   0.27977118176652027           0.2731739444661612 1.0000   
         C         C         1.0       0.4339512381494645  0.28210113205121234           0.2672644804068926 1.0000   
         C         C         1.0       0.43476788878392786           0.3036247119859082 0.24853224185911665          1.0000   
         C         C         1.0       0.46902150867879455           0.326318246874373  0.23478870748800681          1.0000   
         C         C         1.0       0.5006748394118351  0.32581223179463425           0.24203519965580356          1.0000   
         C         C         1.0       0.5001592484354038  0.30455728149090744           0.2614777342791672 1.0000   
         H         H         1.0       0.4071143392633977  0.26602473472070065           0.27723326776965984          1.0000   
         H         H         1.0       0.4099482800460678  0.30195614348884564           0.24268168136074397          1.0000   
         H         H         1.0       0.5259119789054678  0.3399356998713473  0.23041001402834096          1.0000   
         H         H         1.0       0.5273197255766906  0.3056921758472166  0.2657598396307926 1.0000   
         C         C         1.0       0.5210268900163315  0.4148866808607524  0.23159115134197106          1.0000   
         C         C         1.0       0.5040173889384901  0.39167180320197376           0.2103100516217879 1.0000   
         C         C         1.0       0.516450592810359   0.4112262141381721  0.18805628684111075          1.0000   
         C         C         1.0       0.5476327090800907  0.4486079462028562  0.18766288882810617          1.0000   
         C         C         1.0       0.5661588193399704  0.46849992149759917           0.20794779803805316          1.0000   
         C         C         1.0       0.5524608929180828  0.4510041447835149  0.23012084213988396          1.0000   
         C         C         1.0       0.4693606414218271  0.3479938603172004  0.2111271833784955 1.0000   
         C         C         1.0       0.43423582869423616           0.3544104400055736 0.20788032388540306          1.0000   
         C         C         1.0       0.4175806548061365  0.3508867909429249  0.18490963518114598          1.0000   
         C         C         1.0       0.38740330259649064           0.3561813184053086 0.18124216303894541          1.0000   
         C         C         1.0       0.3734707598812106  0.36688948592729603           0.20006828128057214          1.0000   
         C         C         1.0       0.38707092497714707           0.3716137013396719 0.22291687809075345          1.0000   
         C         C         1.0       0.4183806073586232  0.3675162603356724  0.22632760710186076          1.0000   
         C         C         1.0       0.502159846891591   0.32653141721377704           0.1771747522127699 1.0000   
         C         C         1.0       0.5005938843766541  0.3053817167166846  0.15742841908987198          1.0000   
         C         C         1.0       0.46557072533749155           0.27282913139640513          0.15100422692532398          1.0000   
         C         C         1.0       0.4344414249994584  0.2600939840924097  0.1680806989674301 1.0000   
         C         C         1.0       0.43865814458905034           0.2827304674201063 0.18813283805900313          1.0000   
         C         C         1.0       0.4710432178788867  0.3198262501519612  0.1920342596864312 1.0000   
         C         C         1.0       0.4545296285112021  0.25370765701103776           0.12449962963025553          1.0000   
         C         C         1.0       0.39875181169570556           0.3193489204752269 0.10290908823103348          1.0000   
         C         C         1.0       0.4381902138131699  0.3362994989683229  0.10469435497680947          1.0000   
         C         C         1.0       0.4541249348600684  0.3155738019203887  0.11244959729097098          1.0000   
         C         C         1.0       0.4333144087196471  0.2767858988219083  0.11520716214744517          1.0000   
         C         C         1.0       0.39280546490823853           0.25934565733176695          0.11581151414119037          1.0000   
         C         C         1.0       0.3767903325975833  0.280413344578468   0.1084623560976725 1.0000   
         C         C         1.0       0.4319746310760074  0.20897145175571824           0.12493884384778452          1.0000   
         C         C         1.0       0.43418878586075493           0.1854827237812644 0.14212339585882994          1.0000   
         C         C         1.0       0.4162223104471283  0.14743160875785682           0.14050403919811794          1.0000   
         C         C         1.0       0.39797676419737515           0.12859287637243047          0.11994126940334547          1.0000   
         C         C         1.0       0.39343036846268636           0.14969965047975253          0.1026466643727511 1.0000   
         C         C         1.0       0.4108168495346405  0.18928341371348567           0.10455282612234365          1.0000   
         C         C         1.0       0.49373455799582755           0.27404669682888055          0.08419357697685736          1.0000   
         C         C         1.0       0.5233651715436979  0.2781062781847479  0.06928765942885406          1.0000   
         C         C         1.0       0.5485794640560192  0.26722886940744733           0.0766340236504842 1.0000   
         C         C         1.0       0.5467209176336252  0.2569544650780592  0.10044133948959069          1.0000   
         C         C         1.0       0.5183568302785683  0.2542724040709368  0.11548286097848469          1.0000   
         C         C         1.0       0.4906311627417374  0.2623017874965516  0.10784421992365148          1.0000   
         H         H         1.0       0.5095573490492101  0.40225980191812477           0.24944430028286863          1.0000   
         H         H         1.0       0.5046998963348784  0.3976886576795485  0.1707261975949425 1.0000   
         H         H         1.0       0.5576668352308943  0.4642418851858836  0.1704924663689112 1.0000   
         H         H         1.0       0.5693272793540487  0.4664930088767272  0.2455052410354733 1.0000   
         H         H         1.0       0.42739521330507824           0.34197728175046144          0.16868134852671718          1.0000   
         H         H         1.0       0.3764518777183133  0.3565138962304427  0.16233766078607428          1.0000   
         H         H         1.0       0.3773185167811041  0.38402460713090214           0.23790483160916792          1.0000   
         H         H         1.0       0.43159983127512225           0.3756946579815994 0.24490729156982935          1.0000   
         H         H         1.0       0.5300335573763274  0.3540596223909575  0.1810667475418586 1.0000   
         H         H         1.0       0.5237506436076511  0.3180491922101836  0.14494175246707494          1.0000   
         H         H         1.0       0.40739319621042164           0.23609205619166634          0.16278479505411353          1.0000   
         H         H         1.0       0.41533727117505614           0.272794945525556  0.20161744134386472          1.0000   
         H         H         1.0       0.4570818390423193  0.36655507391382275           0.10237907051436201          1.0000   
         H         H         1.0       0.4857117992658824  0.3306264353523425  0.11255820193824986          1.0000   
         H         H         1.0       0.37726861636552145           0.23056057735625787          0.11978766430389778          1.0000   
         H         H         1.0       0.3464064652357412  0.26693812232725156           0.10716191439898093          1.0000   
         H         H         1.0       0.45186695403637733           0.1968121822842878 0.15742864046837657          1.0000   
         H         H         1.0       0.4253445568847799  0.13295264957277914           0.153582011340763  1.0000   
         H         H         1.0       0.37967934660493535           0.1348830118812402 0.08628990868381523          1.0000   
         H         H         1.0       0.41158422796421645           0.20769253364049756          0.09080165612395966          1.0000   
         H         H         1.0       0.47007337444666214           0.2764354553696427 0.07642500821399087          1.0000   
         H         H         1.0       0.529000133028179   0.2890437863161788  0.049819834929416315         1.0000   
         H         H         1.0       0.5658367373523739  0.246946806324724   0.10640048680585902          1.0000   
         H         H         1.0       0.5171692018088522  0.24642334565480006           0.1338446993451114 1.0000   
         C         C         1.0       0.35393106391504403           0.4157221253659663 0.18759927290955497          1.0000   
         C         C         1.0       0.34021131757606005           0.37553414233135823          0.19697864334607257          1.0000   
         H         H         1.0       0.38270672254051225           0.43973678784889975          0.19633424020644905          1.0000   
         H         H         1.0       0.35923635915004914           0.4161728418853039 0.16762249109317792          1.0000   
         H         H         1.0       0.3183646216473045  0.3576802286333856  0.1849598393853608 1.0000   
         H         H         1.0       0.3248491463893447  0.36957910220157836           0.21451433989122506          1.0000   
         C         C         1.0       0.13655283567939466           0.6631374309711845 0.05072380163110519          1.0000   
         C         C         1.0       0.15862954408722715           0.6738047193863435 0.025660457364917334         1.0000   
         H         H         1.0       0.1571159402896257  0.6844600258130974  0.06523576818753427          1.0000   
         H         H         1.0       0.13187689482552192           0.6345260307575764 0.05598677547871196          1.0000   
         H         H         1.0       0.17406676987963757           0.6567109294668488 0.022294583481330094         1.0000   
         H         H         1.0       0.1407440484589362  0.6667530013836223  0.009558413159326679         1.0000   
         C         C         1.0       0.35642493125714153           0.061968877049071475         0.1348793344261169 1.0000   
         C         C         1.0       0.3853191728098744  0.0867616413639487  0.11491252147471262          1.0000   
         H         H         1.0       0.3304514849907067  0.06236608048640052           0.13329198168540143          1.0000   
         H         H         1.0       0.3644411537692163  0.07348823436023462           0.15356430105375923          1.0000   
         H         H         1.0       0.36868976953486987           0.07565833505234884          0.09856399891280666          1.0000   
         H         H         1.0       0.40986740140817957           0.08366809871094404          0.11220667929007237          1.0000   
         C         C         1.0       0.9953719084779502  0.2964572817667137  0.3240964433141914 1.0000   
         C         C         1.0       0.02773282012158925           0.28956000609515853          0.31362437288110295          1.0000   
         H         H         1.0       0.0011767795377766177         0.32390939409323893          0.31483866381819836          1.0000   
         H         H         1.0       0.9992640052231324  0.30351047139327336           0.34358162988002644          1.0000   
         H         H         1.0       0.022783622824547267          0.28123682456496224          0.29483644586783714          1.0000   
         H         H         1.0       0.02999373252107662           0.2665144143952863 0.32274925127415416          1.0000   
         C         C         1.0       0.5994509955603928  0.15126991494976216           0.4130390881030467 1.0000   
         C         C         1.0       0.6340369787959372  0.16241208936248722           0.3950585112161572 1.0000   
         H         H         1.0       0.6138606089563328  0.17179462457263409           0.42861544978587357          1.0000   
         H         H         1.0       0.5889471856051057  0.12234405993563957           0.42106302682724117          1.0000   
         H         H         1.0       0.6483201217365606  0.19320528048572233           0.3884880536496233 1.0000   
         H         H         1.0       0.619100875795739   0.1431608284413271  0.37890979056632673          1.0000   
         C         C         1.0       0.27425420722720467           0.0032028155235066524        0.0394174735398022 1.0000   
         C         C         1.0       0.24608092510952662           0.9698450347372817 0.022170589299939064         1.0000   
         H         H         1.0       0.2842044673878944  0.9880856141635266  0.052054572553029636         1.0000   
         H         H         1.0       0.25664840532354866           0.00922043375028081          0.05150047556784055          1.0000   
         H         H         1.0       0.290187164659105   0.9739059638234471  0.4520435134804386 1.0000   
         H         H         1.0       0.2427912720071937  0.9362046468684245  0.4510505998460403 1.0000   
         C         C         1.0       0.5740914582023866  0.26153845773644746           0.05771307073871606          1.0000   
         C         C         1.0       0.5583721767060754  0.21941008667633    0.04786205739859614          1.0000   
         H         H         1.0       0.5823724391544673  0.2809486744283353  0.044189503399226955         1.0000   
         H         H         1.0       0.6022143181723246  0.2684706829928407  0.06574899218817552          1.0000   
         H         H         1.0       0.5550489997589314  0.19838546302459864           0.06130199416027355          1.0000   
         H         H         1.0       0.5786725647709515  0.2177766704364414  0.03395799533088791          1.0000   
         C         C         1.0       0.4614560868429667  0.25460881002817354           0.29306220464166943          1.0000   
         C         C         1.0       0.47047909816716094           0.27453974645553825          0.31857131531953164          1.0000   
         H         H         1.0       0.4316001740283378  0.2307024749802546  0.29538444269661107          1.0000   
         H         H         1.0       0.48057617929710184           0.2416951064661533 0.29060268724226   1.0000   
         H         H         1.0       0.44818738833543115           0.2828972731729924 0.32323069290651985          1.0000   
         H         H         1.0       0.49802478471060285           0.30108692523984565          0.3176704579339386 1.0000   
         C         C         1.0       0.9863985145630423  0.4623233757083266  0.07399590362253072          1.0000   
         C         C         1.0       0.9528334119658093  0.46866580062031804           0.08121559153458173          1.0000   
         H         H         1.0       0.010196188740967171          0.4834780271583189 0.08496240189875973          1.0000   
         H         H         1.0       0.9940389069566894  0.4709811071990615  0.05493349710805136          1.0000   
         H         H         1.0       0.9468338225173406  0.46357474775576507           0.10180020417447531          1.0000   
         H         H         1.0       0.9264875179466535  0.44682113451749705           0.07274546272309383          1.0000   
         C         C         1.0       0.03982551904758476           0.31060538916805797          0.2026750661510861 1.0000   
         C         C         1.0       0.06934039996618821           0.33474838822722414          0.18183826516829002          1.0000   
         H         H         1.0       0.04214189460312119           0.3306177578361533 0.2176435154541718 1.0000   
         H         H         1.0       0.04925431920635034           0.2930780653050653 0.2117157372056383 1.0000   
         H         H         1.0       0.07205041606325925           0.3150373292930164 0.16967103582455187          1.0000   
         H         H         1.0       0.05800594681360976           0.3481517118119204 0.1690109527524526 1.0000   
         C         C         1.0       0.7863814668650475  0.27923623471379433           0.23966170195301786          1.0000   
         C         C         1.0       0.7580888213294996  0.2574253803928557  0.26150650994599023          1.0000   
         H         H         1.0       0.8108977854041245  0.30914502986188547           0.24572645797864814          1.0000   
         H         H         1.0       0.7728043111522405  0.2893282121294572  0.2275361969281574 1.0000   
         H         H         1.0       0.7295858927480467  0.23347449553176705           0.2547653749118704 1.0000   
         H         H         1.0       0.7498140620183242  0.27877254053763456           0.26866442356578185          1.0000   
         C         C         1.0       0.8893066417048152  0.24801530394399313           0.49589786519244705          1.0000   
         C         C         1.0       0.8596285493453254  0.20403567695230201           0.4979777423630795 1.0000   
         H         H         1.0       0.8745515316017856  0.26153312547540597           0.48735948885962294          1.0000   
         H         H         1.0       0.9122028834630683  0.25093395023911846           0.4834070776320771 1.0000   
         H         H         1.0       0.8730137053818947  0.18524924701772716           0.5014922893201887 1.0000   
         H         H         1.0       0.8444989208274372  0.2011296785117996  0.5152625658317491 1.0000   
         C         C         1.0       0.37116206233049376           0.35890443167807795          0.11576899665209828          1.0000   
         C         C         1.0       0.378314366783367   0.3396519174456305  0.09373857933830068          1.0000   
         H         H         1.0       0.39744057161791074           0.3785892652729651 0.12435909194020055          1.0000   
         H         H         1.0       0.35692157680165787           0.3367518949406698 0.13004763948787082          1.0000   
         H         H         1.0       0.3501668140456736  0.31970421923373604           0.08626745092941467          1.0000   
         H         H         1.0       0.3961178420805607  0.3592353708662643  0.07968556723354545          1.0000   
         C         C         1.0       0.3422657449652656  0.5951665718762624  0.13719401463240297          1.0000   
         C         C         1.0       0.30558556808745757           0.5922005311014495 0.1479493103647853 1.0000   
         H         H         1.0       0.3660994174962889  0.6056190081486997  0.1493041925579244 1.0000   
         H         H         1.0       0.35540957258551537           0.6182477477076856 0.12328027281580115          1.0000   
         H         H         1.0       0.28790055654126634           0.5895906898682008 0.1321336044971719 1.0000   
         H         H         1.0       0.3138950583388199  0.618067750083596   0.15908454363135816          1.0000   
         C         C         1.0       0.2816724739960844  0.43726872143530143           0.40380242182461545          1.0000   
         C         C         1.0       0.2962181889985928  0.4453743187886707  0.3775287567021843 1.0000   
         H         H         1.0       0.2546677740298373  0.409488303405035   0.4034210261640397 1.0000   
         H         H         1.0       0.27552613316436136           0.46065185917480583          0.4102284839662572 1.0000   
         H         H         1.0       0.32277526612712615           0.4748204577624641 0.37726389561458556          1.0000   
         H         H         1.0       0.3082555341741566  0.42681509618996416           0.37168114405075775          1.0000   
         C         C         1.0       0.12727310477224532           0.3763496346766969 0.10958044985772908          1.0000   
         C         C         1.0       0.10456117236474623           0.33506740240315486          0.09871832472125283          1.0000   
         H         H         1.0       0.11882868618109917           0.37670718830059086          0.12974377170710003          1.0000   
         H         H         1.0       0.11965929800122371           0.3963907330982614 0.10066072436296927          1.0000   
         H         H         1.0       0.10683271996414757           0.3129470291864682 0.11016104244819533          1.0000   
         H         H         1.0       0.11584370851498972           0.3306074860512297 0.08099107918813989          1.0000   
         C         C         1.0       0.3465120603354381  0.25573339336133893           0.01177323998977524          1.0000   
         C         C         1.0       0.38789756537479086           0.2875864376177181 0.4929715027976809 1.0000   
         H         H         1.0       0.32664302073985424           0.243069944138159  0.5018655783678746 1.0000   
         H         H         1.0       0.33644222929968826           0.2603767827884467 0.02942049252070217          1.0000   
         H         H         1.0       0.40539471543034183           0.3046528682645675 0.017641453749121103         1.0000   
         H         H         1.0       0.3919722076913699  0.2768002566451949  0.475229207878376  1.0000   
         C         C         1.0       0.534553117834528   0.5391401754991122  0.4791732364769689 1.0000   
         C         C         1.0       0.5291848851756351  0.5752530768027208  0.47632936526581826          1.0000   
         H         H         1.0       0.5501666718431184  0.5427589542095992  0.4965179097821403 1.0000   
         H         H         1.0       0.5557468869661222  0.5396918600194799  0.465860609273368  1.0000   
         H         H         1.0       0.5075599540906024  0.5762135210923324  0.48887246698997844          1.0000   
         H         H         1.0       0.516326247801108   0.5721134357051819  0.4589846947286347 1.0000   
         C         C         1.0       0.7211799352547704  0.9674092761036749  0.4112063857536087 1.0000   
         C         C         1.0       0.6978951252090081  0.953278922049545   0.3876923942455924 1.0000   
         H         H         1.0       0.7468519427275656  0.9646288245168688  0.4124916217545565 1.0000   
         H         H         1.0       0.7018972726803224  0.9488708847715863  0.4255379106560373 1.0000   
         H         H         1.0       0.7156640982957757  0.9673962502973519  0.3716910666689359 1.0000   
         H         H         1.0       0.6724312947453793  0.9557870930758449  0.3875945242816346 1.0000   
         C         C         1.0       0.7983362402793147  0.7076353181469051  0.46435633003632343          1.0000   
         C         C         1.0       0.788161737795996   0.665930875562942   0.45309301529740764          1.0000   
         H         H         1.0       0.8252554648704339  0.732656740636002   0.45515314014416924          1.0000   
         H         H         1.0       0.8058321854847028  0.7071562115834245  0.48385974978473645          1.0000   
         H         H         1.0       0.779823902653959   0.6608902762792112  0.4339248054386017 1.0000   
         H         H         1.0       0.7630593377951261  0.6417082729698711  0.4637017503438929 1.0000   
         C         C         1.0       0.49677676469012894           0.8971562463089903 0.13564297775817133          1.0000   
         C         C         1.0       0.4823079930149553  0.9044678377933052  0.11223948399429057          1.0000   
         H         H         1.0       0.47426739473465696           0.8776742338507163 0.14799632364056237          1.0000   
         H         H         1.0       0.5072952221784133  0.9230874006592298  0.14859283363298473          1.0000   
         H         H         1.0       0.4781470735163412  0.8825241924852127  0.09803366672021453          1.0000   
         H         H         1.0       0.5061279951276905  0.9307632942351239  0.10455668649419113          1.0000   
         C         C         1.0       0.7449953350877475  0.01588541685418691           0.27793868260593146          1.0000   
         C         C         1.0       0.7834084962696946  0.04294650285170606           0.2652477416546909 1.0000   
         H         H         1.0       0.7252073475882038  0.02770856765024397           0.2777267454088164 1.0000   
         H         H         1.0       0.7526361948112505  0.017957285868368065         0.296936334478512  1.0000   
         H         H         1.0       0.7794286562013029  0.0452891536524225  0.2452539894910487 1.0000   
         H         H         1.0       0.801856717444397   0.030346407568273795         0.26776754565933386          1.0000   
         C         C         1.0       0.5071854870506763  0.7615520388353743  0.2965813498069157 1.0000   
         C         C         1.0       0.5108933912603018  0.7332079282398225  0.31385113191903585          1.0000   
         H         H         1.0       0.5007564076203921  0.7811663339528497  0.3075203585433981 1.0000   
         H         H         1.0       0.48173410357037094           0.7438513277394545 0.285130711948308  1.0000   
         H         H         1.0       0.51441492642271    0.7101434879625754  0.3043946948410349 1.0000   
         H         H         1.0       0.4847256435768546  0.7192627707641409  0.32500776871385484          1.0000   
         C         C         1.0       0.6412524605219159  0.8213220615948816  0.02911509974291301          1.0000   
         C         C         1.0       0.6485689469455542  0.8085249260899375  0.053876382514724465         1.0000   
         H         H         1.0       0.6633879293790858  0.850316057168037   0.02554513953291519          1.0000   
         H         H         1.0       0.6110843946175496  0.8168520687275699  0.0310934808685824 1.0000   
         H         H         1.0       0.6309245995424415  0.7772885246080633  0.054420473047433124         1.0000   
         H         H         1.0       0.6797850480516886  0.8176228089816345  0.054216391273071284         1.0000   
         C         C         1.0       0.7899730458990268  0.03323851241224759           0.16282364120935072          1.0000   
         C         C         1.0       0.7927980290707107  0.053119267420465514         0.18768039162999248          1.0000   
         H         H         1.0       0.80995017186641    0.02297979206936079           0.16484517696909   1.0000   
         H         H         1.0       0.8016888864854766  0.05307306199664641           0.14765686752573837          1.0000   
         H         H         1.0       0.8112385865466202  0.04783244018281228           0.20028785419542122          1.0000   
         H         H         1.0       0.7643715485588471  0.04041004117217723           0.196323324116437  1.0000   
         C         C         1.0       0.6386067094159984  0.5008564525588196  0.2050905133585389 1.0000   
         C         C         1.0       0.6042455434550554  0.5073720329322067  0.20690794660215225          1.0000   
         H         H         1.0       0.6381043620022516  0.4896525249976357  0.18623372978039626          1.0000   
         H         H         1.0       0.6380147304865981  0.47697447548114064           0.21607142890079345          1.0000   
         H         H         1.0       0.6014903027697163  0.5231855419063863  0.1917898553774296 1.0000   
         H         H         1.0       0.6054053348433022  0.526014023762541   0.2227053088319244 1.0000   
         C         C         1.0       0.9056950440658713  0.6699105036150907  0.13925489628507037          1.0000   
         C         C         1.0       0.9135219182111709  0.6619286288664444  0.16495289120728437          1.0000   
         H         H         1.0       0.9120093343917319  0.700754460913211   0.137714393280645  1.0000   
         H         H         1.0       0.8731155620408666  0.6515410624346832  0.13783821402083232          1.0000   
         H         H         1.0       0.9425373214922995  0.6866837931407402  0.17040564854631496          1.0000   
         H         H         1.0       0.9167096781512662  0.6362944675675481  0.1651668233109363 1.0000   
         C         C         1.0       0.8246180822970559  0.5012431894109719  0.3778526953419045 1.0000   
         C         C         1.0       0.8657659206563517  0.5133420826875429  0.38660398023347575          1.0000   
         H         H         1.0       0.8022275518194625  0.4899677903796552  0.39327451612160735          1.0000   
         H         H         1.0       0.8141730056035326  0.4766422738850161  0.36557406886334787          1.0000   
         H         H         1.0       0.8873213903696753  0.5180874819460216  0.3726633200037756 1.0000   
         H         H         1.0       0.8620588667544722  0.4871469847001589  0.39559625050948866          1.0000   
         C         C         1.0       0.7545874598399432  0.7407558434755234  0.34231286838481934          1.0000   
         C         C         1.0       0.754875250527758   0.7157920532465689  0.3631462190349486 1.0000   
         H         H         1.0       0.7487185694395692  0.7232059758010035  0.32488735203170266          1.0000   
         H         H         1.0       0.7846338929177862  0.7656064413153294  0.3402032482223046 1.0000   
         H         H         1.0       0.7287562019514322  0.6985597019479295  0.3739170731710996 1.0000   
         H         H         1.0       0.7704714764264021  0.7380366053508748  0.3774718700474904 1.0000   
         C         C         1.0       0.7324141337250927  0.7525219616882916  0.23844381364650216          1.0000   
         C         C         1.0       0.7541710527254004  0.7874471982923344  0.2556134981813159 1.0000   
         H         H         1.0       0.7324639010804576  0.7620580060341379  0.22057620140860437          1.0000   
         H         H         1.0       0.7008977334887337  0.7341808999911313  0.2447721517607886 1.0000   
         H         H         1.0       0.7858568490949207  0.8076920182423835  0.25053165225380836          1.0000   
         H         H         1.0       0.7552194433595681  0.7781890577893541  0.27373391175324946          1.0000   
         C         C         1.0       0.13053176546460632           0.548734501181196  0.33328835831035003          1.0000   
         C         C         1.0       0.17223671942378    0.585417023603978   0.3308879936030311 1.0000   
         H         H         1.0       0.11124522482413322           0.551042366169886  0.31936811316012803          1.0000   
         H         H         1.0       0.11626295313845314           0.5468284103399724 0.35078817605488366          1.0000   
         H         H         1.0       0.18814628480920903           0.5812231827025514 0.31521652876358425          1.0000   
         H         H         1.0       0.1891240299410089  0.5863237319147053  0.347008584654528  1.0000   
         C         C         1.0       0.10418073617048165           0.8005375347870342 0.4293083924525503 1.0000   
         C         C         1.0       0.07515774435970063           0.7679658400405514 0.4135357870407481 1.0000   
         H         H         1.0       0.10601358859568234           0.788038441373261  0.4468605623970578 1.0000   
         H         H         1.0       0.09745787732753329           0.82466314370102   0.4334051342223418 1.0000   
         H         H         1.0       0.06734310672138008           0.7806381409501609 0.39884661707467617          1.0000   
         H         H         1.0       0.0879816802105644  0.7521697105862288  0.40523677681418496          1.0000   
         C         C         1.0       0.3106683604872771  0.01261578285181697           0.32044900106636653          1.0000   
         C         C         1.0       0.35182571056550516           0.038898281212446095         0.31344111871752783          1.0000   
         H         H         1.0       0.2930775383567254  0.9955843586311668  0.30468800764817744          1.0000   
         H         H         1.0       0.2940322909054246  0.025917017904557582         0.3270689630119042 1.0000   
         H         H         1.0       0.3473437371238864  0.05172449455546224           0.29759513613064253          1.0000   
         H         H         1.0       0.3638557386543489  0.022689813453138807         0.304011021717733  1.0000   
         C         C         1.0       0.009264333432093546          0.6737222301528936 0.3475014199497507 1.0000   
         C         C         1.0       0.0006236159073793601         0.7061713187313179 0.3513958859761329 1.0000   
         H         H         1.0       0.990189296072116   0.6556686394687246  0.33247564497266746          1.0000   
         H         H         1.0       0.9985434816580937  0.6547787839059814  0.36339675539969013          1.0000   
         H         H         1.0       0.006159876431731223          0.7138604278045407 0.37114873286061306          1.0000   
         H         H         1.0       0.019001670162325828          0.7327375641176478 0.34129644845832363          1.0000   
         C         C         1.0       0.3789807571286273  0.8542630764224859  0.4449182841444546 1.0000   
         C         C         1.0       0.38822664360712383           0.8870750419303541 0.42794406840431   1.0000   
         H         H         1.0       0.40721748114688794           0.8549927173946441 0.44737002406429577          1.0000   
         H         H         1.0       0.3603664766161395  0.8284031069742868  0.4363216780300817 1.0000   
         H         H         1.0       0.40938573632302455           0.888812815795182  0.41379797319024203          1.0000   
         H         H         1.0       0.40443539813056445           0.9160343706001849 0.43632647256254486          1.0000   
         C         C         1.0       0.22558785688782304           0.7845650102133166 0.21487819953296958          1.0000   
         C         C         1.0       0.24248402553099707           0.8281128607659334 0.2123836563950796 1.0000   
         H         H         1.0       0.20531698637313037           0.7706003205807365 0.20087887085192468          1.0000   
         H         H         1.0       0.24713811097764107           0.7755989931366538 0.209830769649556  1.0000   
         H         H         1.0       0.26063251756790523           0.8466164983405642 0.22642164649137617          1.0000   
         H         H         1.0       0.21518974722223194           0.830173628122072  0.21369963935040812          1.0000   
         C         C         1.0       0.26622682599135505           0.8127495044885027 0.7506764807999333 1.0000   
         C         C         1.0       0.23507328233140434           0.815686273500966  0.7563780662699694 1.0000   
         C         C         1.0       0.2126485941754078  0.7987549440814389  0.7755840109808493 1.0000   
         C         C         1.0       0.22014571547352213           0.7762570576916328 0.7912675236145768 1.0000   
         C         C         1.0       0.25567517920591737           0.7788531992875211 0.7876954360752326 1.0000   
         C         C         1.0       0.27658549573007957           0.7943487728130341 0.7664130440342205 1.0000   
         H         H         1.0       0.22869366510697725           0.8321348517016185 0.7439771625961793 1.0000   
         H         H         1.0       0.1862218296933127  0.8006647577524749  0.7779887295054345 1.0000   
         H         H         1.0       0.2688172440383708  0.769232729719704   0.8008067512451799 1.0000   
         H         H         1.0       0.3056223484207742  0.7988613047888747  0.765196022031698  1.0000   
         C         C         1.0       0.18760485045129086           0.6892881281540268 0.8013760062901081 1.0000   
         C         C         1.0       0.18714433328812233           0.7122562146450622 0.8204119334835294 1.0000   
         C         C         1.0       0.17454248057094984           0.6949597715113034 0.8429239253284064 1.0000   
         C         C         1.0       0.16047333591713095           0.656732233687694  0.8466546617720703 1.0000   
         C         C         1.0       0.16686429615533857           0.6370147797615042 0.8283692001066297 1.0000   
         C         C         1.0       0.17672625224759853           0.6513851485872177 0.8054344871920942 1.0000   
         C         C         1.0       0.1945545283465959  0.7546367219266483  0.8141411863094075 1.0000   
         C         C         1.0       0.1495411818601065  0.7427839525401534  0.8126458281387512 1.0000   
         C         C         1.0       0.1292003896015864  0.7399764312591002  0.8336865464508171 1.0000   
         C         C         1.0       0.09145410889214733           0.726873703968509  0.8331171940705807 1.0000   
         C         C         1.0       0.06958487838347252           0.7108383925534806 0.812386343696698  1.0000   
         C         C         1.0       0.08947169273082373           0.7128105103474207 0.7914909848702475 1.0000   
         C         C         1.0       0.12930971854343123           0.7287784746700444 0.7913061233408222 1.0000   
         C         C         1.0       0.2408667526782306  0.7859366856214176  0.8505084735873529 1.0000   
         C         C         1.0       0.2599358096150293  0.8148137670437696  0.8677051164549625 1.0000   
         C         C         1.0       0.25532567521463184           0.8479205994882955 0.8684265644199728 1.0000   
         C         C         1.0       0.2292658538389018  0.8480888160233924  0.8513962920343702 1.0000   
         C         C         1.0       0.21247383236527323           0.8193813978119431 0.8344186941713427 1.0000   
         C         C         1.0       0.21569276711423946           0.7869701552849347 0.8349831896935288 1.0000   
         C         C         1.0       0.27286536018594787           0.8812632206586102 0.8878089247713976 1.0000   
         C         C         1.0       0.1714364516179133  0.8139555097755126  0.9379068904968372 1.0000   
         C         C         1.0       0.20092484865510324           0.8072713766698811 0.9380307886656325 1.0000   
         C         C         1.0       0.23340547769968417           0.8295981778034932 0.9236401556010054 1.0000   
         C         C         1.0       0.2374773295212511  0.8590748122606285  0.9085378496698642 1.0000   
         C         C         1.0       0.20696268833858802           0.8646168086580789 0.9089502329951495 1.0000   
         C         C         1.0       0.17547463722259407           0.8447150366969738 0.9244604223030587 1.0000   
         C         C         1.0       0.2850153761969935  0.9234748786030358  0.8763865320047093 1.0000   
         C         C         1.0       0.3035462766962923  0.9335745605976252  0.853667112741704  1.0000   
         C         C         1.0       0.30770349364318733           0.9647098790207315 0.8410964474954605 1.0000   
         C         C         1.0       0.2947358503528493  0.9885321850587744  0.8511120625853653 1.0000   
         C         C         1.0       0.27771319058417604           0.9788888488323024 0.8741190318416214 1.0000   
         C         C         1.0       0.2765680912027289  0.9493556928684517  0.8867295269657887 1.0000   
         C         C         1.0       0.32014177627062335           0.9090956101359123 0.9230758187156265 1.0000   
         C         C         1.0       0.35321406357400964           0.91492978043689   0.9343940961127579 1.0000   
         C         C         1.0       0.3790394420281371  0.9068854474681203  0.9227960172721473 1.0000   
         C         C         1.0       0.37310663740766087           0.8960736680136487 0.8994601318279251 1.0000   
         C         C         1.0       0.3416836425527558  0.8904120642136314  0.8878474455174379 1.0000   
         C         C         1.0       0.3132381147429125  0.8940406899548135  0.8994393180290807 1.0000   
         H         H         1.0       0.19451766441052817           0.7022256593618222 0.7826497873681107 1.0000   
         H         H         1.0       0.16954431641305542           0.7092394402202018 0.8577296272290528 1.0000   
         H         H         1.0       0.1477722263493076  0.6427937746212037  0.8633438596616777 1.0000   
         H         H         1.0       0.1801659894488313  0.6359902526342457  0.7909409545179052 1.0000   
         H         H         1.0       0.14099255944425415           0.7488485137887858 0.8512201531563243 1.0000   
         H         H         1.0       0.0765916287521085  0.7291830660911468  0.8494759967121611 1.0000   
         H         H         1.0       0.0756752651404715  0.6968751088993879  0.774277207647148  1.0000   
         H         H         1.0       0.14252978157556354           0.7282450208647923 0.7747179201975144 1.0000   
         H         H         1.0       0.2444753210398384  0.7613485912685383  0.8497705399976655 1.0000   
         H         H         1.0       0.27480909072251286           0.809375308642813  0.8803370294661281 1.0000   
         H         H         1.0       0.2243522583573014  0.8719362101771791  0.8523996817564703 1.0000   
         H         H         1.0       0.1943724291048511  0.8209667751473694  0.8208625855145124 1.0000   
         H         H         1.0       0.19853220461901666           0.7850791921309783 0.9487089839294152 1.0000   
         H         H         1.0       0.2535239957814068  0.8201742199877086  0.9216912059518997 1.0000   
         H         H         1.0       0.2063640658867811  0.8842919967432262  0.8966712397260507 1.0000   
         H         H         1.0       0.15397751763351278           0.8537420750260933 0.9233583755627789 1.0000   
         H         H         1.0       0.31380763571629544           0.9147347233949636 0.8446004515568548 1.0000   
         H         H         1.0       0.32216671805491287           0.9723045435091321 0.8232911709939041 1.0000   
         H         H         1.0       0.2608771007684284  0.9917558432987267  0.8785743587980824 1.0000   
         H         H         1.0       0.2617994652242255  0.9417815622465929  0.9030215719913888 1.0000   
         H         H         1.0       0.30247553103479974           0.9184041150340937 0.932305536559085  1.0000   
         H         H         1.0       0.3550273502500751  0.9250495195598353  0.9539243553810308 1.0000   
         H         H         1.0       0.3940471543768207  0.893622804519505   0.8894445158487302 1.0000   
         H         H         1.0       0.3421347968006756  0.8857789085302943  0.8686639382699552 1.0000   
         C         C         1.0       0.8461290312905194  0.6472880187828929  0.667655404566639  1.0000   
         C         C         1.0       0.8356884938832911  0.6748309924924648  0.6736574236290005 1.0000   
         C         C         1.0       0.8115862207374651  0.6669837665950831  0.6945928690222298 1.0000   
         C         C         1.0       0.7952376275605636  0.6315158576986093  0.706616569354302  1.0000   
         C         C         1.0       0.8095551512906282  0.6075824809983138  0.7003313615082647 1.0000   
         C         C         1.0       0.8348878429782394  0.6159562188768869  0.6805395935200939 1.0000   
         H         H         1.0       0.8485676358669352  0.7006820717572109  0.663035649469959  1.0000   
         H         H         1.0       0.804935476425689   0.6886560757825954  0.7018244609342936 1.0000   
         H         H         1.0       0.8010360252028939  0.5810245033456225  0.709701742923398  1.0000   
         H         H         1.0       0.8442662526696078  0.5964260276061579  0.6749452511345185 1.0000   
         C         C         1.0       0.715204122398692   0.5640023782751492  0.6960291057916993 1.0000   
         C         C         1.0       0.7242363419942587  0.5787534157539242  0.7192043653899008 1.0000   
         C         C         1.0       0.6969342420175135  0.5579386045905803  0.7376835886041379 1.0000   
         C         C         1.0       0.6664727961461049  0.5219629359550272  0.7340819195333489 1.0000   
         C         C         1.0       0.6595609775122426  0.5056206114121427  0.7114468760238793 1.0000   
         C         C         1.0       0.6812769634920937  0.5276169920627418  0.6922909304569318 1.0000   
         C         C         1.0       0.7608623478467901  0.6213178842136322  0.7252469005670436 1.0000   
         C         C         1.0       0.7431783807789544  0.6495890079152093  0.7262250175081814 1.0000   
         C         C         1.0       0.7359175140285223  0.6632064239262493  0.7477312672658842 1.0000   
         C         C         1.0       0.7188085871102251  0.6866237073410826  0.7486265259663957 1.0000   
         C         C         1.0       0.70675522124681    0.6937152033762564  0.727151790889115  1.0000   
         C         C         1.0       0.7138297369087043  0.6804602548010478  0.7058159946999059 1.0000   
         C         C         1.0       0.7297582331757938  0.6568750361383485  0.7049527280345982 1.0000   
         C         C         1.0       0.7797556808428862  0.5920793569389479  0.7616074750737604 1.0000   
         C         C         1.0       0.7953023610705493  0.5964049974624849  0.7847092409023902 1.0000   
         C         C         1.0       0.8212768934586663  0.6342581669400824  0.7934678382151112 1.0000   
         C         C         1.0       0.8293851176681001  0.6645053851481312  0.779073781179089  1.0000   
         C         C         1.0       0.8115981178722383  0.6587650766190124  0.7568214142751836 1.0000   
         C         C         1.0       0.7843724835895736  0.6228889275718309  0.7487389528049375 1.0000   
         C         C         1.0       0.8418721542707921  0.6441362726117816  0.8201687941278594 1.0000   
         C         C         1.0       0.7949343187438187  0.7147609239050726  0.8514753937732883 1.0000   
         C         C         1.0       0.7708655970948668  0.6745442163414996  0.8468814421426091 1.0000   
         C         C         1.0       0.7858065612833289  0.6533209959677393  0.8367994636939974 1.0000   
         C         C         1.0       0.8244495291622395  0.6709616866053717  0.8302819854914463 1.0000   
         C         C         1.0       0.8488880631778987  0.7096798417315029  0.8371612723522454 1.0000   
         C         C         1.0       0.8338803988166212  0.7317698030689632  0.8465391789209343 1.0000   
         C         C         1.0       0.8879369368051089  0.662852177575225   0.8166412237016907 1.0000   
         C         C         1.0       0.9072860298750145  0.6619971048090034  0.7955687594775178 1.0000   
         C         C         1.0       0.9470210894213147  0.6783917906160923  0.7943847702744051 1.0000   
         C         C         1.0       0.968238114668068   0.6983073390435937  0.8134144458512231 1.0000   
         C         C         1.0       0.9500162946579788  0.7008494796267424  0.834930344361171  1.0000   
         C         C         1.0       0.9119522999935898  0.6835769984685406  0.8366101788730157 1.0000   
         C         C         1.0       0.8327695792181643  0.5782140547710202  0.8284633238720182 1.0000   
         C         C         1.0       0.826953799664994   0.5485458996138323  0.8430280858851863 1.0000   
         C         C         1.0       0.8189234442657864  0.5491947175094168  0.8668477166327472 1.0000   
         C         C         1.0       0.812992373128008   0.5779811503324676  0.8754450822513772 1.0000   
         C         C         1.0       0.8176007985738455  0.6069123844638631  0.8610351868740753 1.0000   
         C         C         1.0       0.8270073320582326  0.607228463665919   0.837026926149489  1.0000   
         H         H         1.0       0.7327323017347732  0.5807603426777347  0.6813761033462784 1.0000   
         H         H         1.0       0.7033641815030608  0.5673156133413113  0.7561310603021805 1.0000   
         H         H         1.0       0.6505583108456389  0.5051675878780728  0.7493081224142069 1.0000   
         H         H         1.0       0.6751455120312007  0.5161562966127247  0.6743925169954643 1.0000   
         H         H         1.0       0.740586542573443   0.6548980441458657  0.7650951080127111 1.0000   
         H         H         1.0       0.7132173456082591  0.6984565302742891  0.7664134068780882 1.0000   
         H         H         1.0       0.7047247277532733  0.6860093627611417  0.6892347747724844 1.0000   
         H         H         1.0       0.7321095267565074  0.6451236934921277  0.6878517687377942 1.0000   
         H         H         1.0       0.7587987723337304  0.5631744727223218  0.7561978400725797 1.0000   
         H         H         1.0       0.7856707075877257  0.5705671642712075  0.7942705847702609 1.0000   
         H         H         1.0       0.8524768317046488  0.6953289475670469  0.7820732604036498 1.0000   
         H         H         1.0       0.817959319015567   0.6819824583403283  0.7451030850602558 1.0000   
         H         H         1.0       0.7409567588962773  0.6596415003139371  0.853876487324537  1.0000   
         H         H         1.0       0.7667655482201546  0.6223923636866971  0.8342774580020142 1.0000   
         H         H         1.0       0.8797374076355842  0.7232893199422171  0.8339532810379543 1.0000   
         H         H         1.0       0.8526643857144091  0.7628965260306919  0.8473132611539053 1.0000   
         H         H         1.0       0.894323450365708   0.6448915695782002  0.7802037091104577 1.0000   
         H         H         1.0       0.9613135259797261  0.6762569710925102  0.7783747174256085 1.0000   
         H         H         1.0       0.9642997944758354  0.7132823350368381  0.8516387970778808 1.0000   
         H         H         1.0       0.9033106151149498  0.6909652914836658  0.8544906516608718 1.0000   
         H         H         1.0       0.84085390877803    0.5770540353703363  0.8096345632918717 1.0000   
         H         H         1.0       0.8282957566962109  0.5254137713942874  0.8333388275846444 1.0000   
         H         H         1.0       0.804053808428018   0.5766456068963289  0.8937005087677431 1.0000   
         H         H         1.0       0.8104942629960125  0.6284783882947637  0.8686343867200907 1.0000   
         C         C         1.0       0.6500022414586977  0.8732785569619085  0.5723502562076386 1.0000   
         C         C         1.0       0.6784312216164952  0.9114809268352004  0.5748940642024221 1.0000   
         C         C         1.0       0.6798368075232649  0.9319285298250902  0.5955874074440123 1.0000   
         C         C         1.0       0.6557355773606363  0.9140134471454471  0.6157023318004388 1.0000   
         C         C         1.0       0.6260986028913266  0.8766604532556752  0.6118477529338743 1.0000   
         C         C         1.0       0.6237231320933582  0.8564654893439099  0.5907228672655176 1.0000   
         H         H         1.0       0.7003087799411976  0.9271038602853628  0.5610589188954909 1.0000   
         H         H         1.0       0.7012013643522939  0.9604425763989203  0.5966237622025331 1.0000   
         H         H         1.0       0.6054782524108598  0.8606630865100601  0.6263847106032252 1.0000   
         H         H         1.0       0.6004106684123522  0.8266738858115603  0.5893392318605071 1.0000   
         C         C         1.0       0.5950762470282743  0.936452870062759   0.6452788904630969 1.0000   
         C         C         1.0       0.6322820123056445  0.9527613955353816  0.636301520578979  1.0000   
         C         C         1.0       0.6454481870585803  0.9859770802672193  0.624122153341321  1.0000   
         C         C         1.0       0.6264090720432718  0.0057724462534185506        0.6225469107148976 1.0000   
         C         C         1.0       0.5900931844790004  0.9914975752629227  0.632428325118445  1.0000   
         C         C         1.0       0.5733054224810531  0.9550568609783616  0.6426030499055865 1.0000   
         C         C         1.0       0.6599235057408913  0.9372815151166102  0.6403839443268675 1.0000   
         C         C         1.0       0.7038165043008716  0.9677923760072374  0.6471883889295664 1.0000   
         C         C         1.0       0.7120781106227281  0.001922288339497813         0.6592328460236992 1.0000   
         C         C         1.0       0.7459020571441279  0.02510270342370939           0.669889217280262  1.0000   
         C         C         1.0       0.7744852133259976  0.01639146598965957           0.6663696996154924 1.0000   
         C         C         1.0       0.7689249201865379  0.983634336281347   0.6545091552314319 1.0000   
         C         C         1.0       0.7343288881081298  0.959731310801726   0.644088668739678  1.0000   
         C         C         1.0       0.6393392873087371  0.924579337990785   0.685867252628808  1.0000   
         C         C         1.0       0.640840181887063   0.9089784330554298  0.7080839345098952 1.0000   
         C         C         1.0       0.6498765367375243  0.8801052379708549  0.7091944923258914 1.0000   
         C         C         1.0       0.6522507569255396  0.8622807774311995  0.6882095197562166 1.0000   
         C         C         1.0       0.6538563387291362  0.8790630141333917  0.6663511086742586 1.0000   
         C         C         1.0       0.648175536195231   0.9109889727616363  0.6640363980733417 1.0000   
         C         C         1.0       0.6616793198713318  0.8704548705006198  0.734383527701314  1.0000   
         C         C         1.0       0.7645750808529099  0.9682758192476559  0.7660382653364172 1.0000   
         C         C         1.0       0.7409951993060955  0.9340406570684162  0.7784863063623881 1.0000   
         C         C         1.0       0.7075748407303419  0.9055382532498965  0.768637594514319  1.0000   
         C         C         1.0       0.6964700262572697  0.9078983855431995  0.7449647213932357 1.0000   
         C         C         1.0       0.7237680217075497  0.9395862079536306  0.7316675751564901 1.0000   
         C         C         1.0       0.7549658824565744  0.9693144695246241  0.7423746257875019 1.0000   
         C         C         1.0       0.6755856340513159  0.8396929956254953  0.7324626472731216 1.0000   
         C         C         1.0       0.6622531161695563  0.8080273163156436  0.7481946385083361 1.0000   
         C         C         1.0       0.678627516995619   0.784831834013161   0.7475924570299364 1.0000   
         C         C         1.0       0.7073137007416612  0.7906104339500505  0.7301327484910156 1.0000   
         C         C         1.0       0.7220159926857865  0.8228905884062574  0.7159837481901165 1.0000   
         C         C         1.0       0.7076154661807874  0.8476960183047961  0.7180015586625627 1.0000   
         C         C         1.0       0.5889130915222084  0.8188137687327608  0.7434620922264464 1.0000   
         C         C         1.0       0.5577015867057026  0.8011425122306391  0.7593164047749225 1.0000   
         C         C         1.0       0.5557688139545475  0.8180110939209038  0.780026363696091  1.0000   
         C         C         1.0       0.5838999403312526  0.8559164732100918  0.7832541512828557 1.0000   
         C         C         1.0       0.615481150106543   0.8731238906254337  0.768685981531282  1.0000   
         C         C         1.0       0.621883610382183   0.8535393699911292  0.7495768919958251 1.0000   
         H         H         1.0       0.5811339323098577  0.9091119117808998  0.6559268533404149 1.0000   
         H         H         1.0       0.6735744833068058  0.9986244836618607  0.6145976846609748 1.0000   
         H         H         1.0       0.64409264147857    0.032665726554698744         0.6127119719675612 1.0000   
         H         H         1.0       0.544327577825572   0.9426521647744033  0.6509163362978867 1.0000   
         H         H         1.0       0.6897713315842059  0.008621362966430457         0.6646080296194806 1.0000   
         H         H         1.0       0.7525706605926853  0.05286661989646538           0.6792460589034331 1.0000   
         H         H         1.0       0.7911579949772121  0.9761698654303548  0.6535931904669848 1.0000   
         H         H         1.0       0.7309581041652787  0.9348777745062732  0.6345907793881801 1.0000   
         H         H         1.0       0.6403538343552179  0.9519566480129465  0.68651533829768   1.0000   
         H         H         1.0       0.6385261993450705  0.92079832698335    0.725257238159656  1.0000   
         H         H         1.0       0.6537021629056121  0.835702705353296   0.6882072434263344 1.0000   
         H         H         1.0       0.6596387281818334  0.8646615017272647  0.6511975609964086 1.0000   
         H         H         1.0       0.7472066192748463  0.9302659544003896  0.7965928382803558 1.0000   
         H         H         1.0       0.6913116028875984  0.882082301924659   0.780482562427125  1.0000   
         H         H         1.0       0.7219946678013915  0.9401613404930015  0.712228520749548  1.0000   
         H         H         1.0       0.7731205684643211  0.9908082320733589  0.7302323852539181 1.0000   
         H         H         1.0       0.6445881444121172  0.8074896235692989  0.7640891020956494 1.0000   
         H         H         1.0       0.6710607209088785  0.763067531874387   0.7602895260884348 1.0000   
         H         H         1.0       0.7478902467625196  0.8301994202381283  0.7044184127364559 1.0000   
         H         H         1.0       0.7207692498991206  0.8745194795209456  0.7092029566670044 1.0000   
         H         H         1.0       0.588981017007129   0.7992359279684464  0.7294588869562735 1.0000   
         H         H         1.0       0.5361598687316174  0.7717534347761961  0.7560988372147852 1.0000   
         H         H         1.0       0.5801782753730911  0.869610178975796   0.7992768514350092 1.0000   
         H         H         1.0       0.6380522901279689  0.9014178243759331  0.773216324741256  1.0000   
         C         C         1.0       0.6668143533623814  0.810855389822807   0.5217026848609856 1.0000   
         C         C         1.0       0.7003509604029174  0.8167183457053466  0.5112887944854718 1.0000   
         C         C         1.0       0.6837627583762695  0.7714474847973589  0.9906972445951248 1.0000   
         C         C         1.0       0.6514378478602311  0.7409396504800809  0.9805175780621744 1.0000   
         C         C         1.0       0.6159702641420703  0.737145075044994   0.987101147723076  1.0000   
         C         C         1.0       0.633222529408323   0.7844739636458692  0.5106850126378957 1.0000   
         H         H         1.0       0.7291537303525093  0.8352360096254814  0.5196256026872106 1.0000   
         H         H         1.0       0.7129649059843632  0.778503244058691   0.9896700159813309 1.0000   
         H         H         1.0       0.5902242097018803  0.7180092349093956  0.9770056443635898 1.0000   
         H         H         1.0       0.60463433520318    0.7772893171809856  0.5194061999482209 1.0000   
         C         C         1.0       0.6070046426982846  0.6536685646669954  0.9806413454244577 1.0000   
         C         C         1.0       0.6255765293575142  0.6711603291197437  0.9594335125112471 1.0000   
         C         C         1.0       0.6187910744938471  0.6458775553410095  0.9398294297812921 1.0000   
         C         C         1.0       0.5949839131894589  0.6060434276541481  0.9407514414698056 1.0000   
         C         C         1.0       0.5766157081009069  0.5900904396405647  0.9621876622263096 1.0000   
         C         C         1.0       0.5810352293370313  0.6141065037896849  0.9817657333463482 1.0000   
         C         C         1.0       0.6561272164747287  0.7168068294578367  0.9588211155003207 1.0000   
         C         C         1.0       0.6951056460406907  0.716907910723707   0.9581624577005927 1.0000   
         C         C         1.0       0.7141502862879727  0.7172215755846134  0.9368411894889896 1.0000   
         C         C         1.0       0.7412358831999531  0.7049597778604116  0.9364128279805065 1.0000   
         C         C         1.0       0.7537942228403881  0.6981189669319892  0.9576255143768125 1.0000   
         C         C         1.0       0.7375003995281669  0.7016254809975665  0.9788859143316473 1.0000   
         C         C         1.0       0.7082286452235631  0.7091863057102776  0.9789065325994322 1.0000   
         C         C         1.0       0.6163997277396089  0.722023247356976   0.9228114160646226 1.0000   
         C         C         1.0       0.6179947142123685  0.7418029204794402  0.9014463484707395 1.0000   
         C         C         1.0       0.6494874784379937  0.7746664612784554  0.8939237825390763 1.0000   
         C         C         1.0       0.6796977414120108  0.7908386646012909  0.9092543968653242 1.0000   
         C         C         1.0       0.6801428127078711  0.7742040025816782  0.9304663240286392 1.0000   
         C         C         1.0       0.6494549112551127  0.7378386597793655  0.9369247292955784 1.0000   
         C         C         1.0       0.6554588202927683  0.7977481209283128  0.8688313071125681 1.0000   
         C         C         1.0       0.7374879780832757  0.7651620549298178  0.8397286335363873 1.0000   
         C         C         1.0       0.6986607965547272  0.7393454451772838  0.8396461716395478 1.0000   
         C         C         1.0       0.673795803272295   0.7510906341253867  0.8479769365945291 1.0000   
         C         C         1.0       0.6861933616042082  0.7891602360973705  0.8553473668870177 1.0000   
         C         C         1.0       0.7253514962784     0.816015922701347   0.8545589356599583 1.0000   
         C         C         1.0       0.7509973562685415  0.8041913216036704  0.8466606154528795 1.0000   
         C         C         1.0       0.6689163182397538  0.8426688701569541  0.8722252334923953 1.0000   
         C         C         1.0       0.6578905595036946  0.8544718545907355  0.8935880529584518 1.0000   
         C         C         1.0       0.6653170511804751  0.8926114344066576  0.8956671411870859 1.0000   
         C         C         1.0       0.6874612667783389  0.9189524021781341  0.8789957605417545 1.0000   
         C         C         1.0       0.6968935254175717  0.9083827974552223  0.8582959625242761 1.0000   
         C         C         1.0       0.6881687906832888  0.8706689347177532  0.85427912425599   1.0000   
         C         C         1.0       0.6189406783433058  0.781917468547036   0.8288600925265353 1.0000   
         C         C         1.0       0.5867695167455531  0.7718393221548049  0.815673020222084  1.0000   
         C         C         1.0       0.5537954946433437  0.7664396519395495  0.8258978614721092 1.0000   
         C         C         1.0       0.5531781490844253  0.7729177451325544  0.8504116556783538 1.0000   
         C         C         1.0       0.58525386237318    0.7801757956122244  0.8643473163136078 1.0000   
         C         C         1.0       0.6185940183602288  0.7847486279270907  0.8529770465595296 1.0000   
         H         H         1.0       0.6294134282134971  0.6904186282173682  0.5113282153370108 1.0000   
         H         H         1.0       0.6321799499233405  0.654186721647246   0.9227947819302271 1.0000   
         H         H         1.0       0.5925942883604405  0.5882332195926038  0.9249386481470256 1.0000   
         H         H         1.0       0.5709976325665884  0.6279955090256697  0.5145329356619279 1.0000   
         H         H         1.0       0.7000892445682628  0.7197768374173812  0.9205258368880774 1.0000   
         H         H         1.0       0.7569233122012737  0.7059613756284852  0.9202241611283694 1.0000   
         H         H         1.0       0.745635864478897   0.6961616518115818  0.9967791137948256 1.0000   
         H         H         1.0       0.6984241926005018  0.7122612672911159  0.9961839518245204 1.0000   
         H         H         1.0       0.5897839131736422  0.6948336531121642  0.9281097894985364 1.0000   
         H         H         1.0       0.5917300455229877  0.728326390465834   0.8925371662339924 1.0000   
         H         H         1.0       0.7079203684587553  0.8173348604672245  0.9072920420219642 1.0000   
         H         H         1.0       0.7058348092622072  0.7849965735777794  0.9418495606294098 1.0000   
         H         H         1.0       0.6900309579383922  0.7086549844595916  0.839798719108043  1.0000   
         H         H         1.0       0.6448406377436983  0.7308184713805929  0.8497843079377758 1.0000   
         H         H         1.0       0.7400015089760117  0.8460897564238115  0.863233455359984  1.0000   
         H         H         1.0       0.7806471071693121  0.8229921025520814  0.8508879090872471 1.0000   
         H         H         1.0       0.6397506165136065  0.8332331046954778  0.9064593988249323 1.0000   
         H         H         1.0       0.6571691318739538  0.9008848146782814  0.9122010913382945 1.0000   
         H         H         1.0       0.7078637895447369  0.92656230332846    0.8414976320512025 1.0000   
         H         H         1.0       0.6947299827301883  0.8597075944484623  0.8378574415484065 1.0000   
         H         H         1.0       0.6439540298665019  0.78705014897717    0.8177446184033825 1.0000   
         H         H         1.0       0.5927013095731818  0.770596196331242   0.7979640160305015 1.0000   
         H         H         1.0       0.5288513077880398  0.7738807258498165  0.8588670444182752 1.0000   
         H         H         1.0       0.5829088438277984  0.7842713214426456  0.8822982645275447 1.0000   
         C         C         1.0       0.2621701545871737  0.39961905671414827           0.9374475875842255 1.0000   
         C         C         1.0       0.26146385451774745           0.3701528207438122 0.9491793481154059 1.0000   
         C         C         1.0       0.2897143661315602  0.37739364727455527           0.9649278948248775 1.0000   
         C         C         1.0       0.31646210291073545           0.4143309783237752 0.9731947762873351 1.0000   
         C         C         1.0       0.3137927144724991  0.44413022704974037           0.9631916973719318 1.0000   
         C         C         1.0       0.2892115555545379  0.43661660322932794           0.9444724535656008 1.0000   
         H         H         1.0       0.24236070183797315           0.34113157663214033          0.9451104651109673 1.0000   
         H         H         1.0       0.28858866192468996           0.3521030622416619 0.9717858964725912 1.0000   
         H         H         1.0       0.33384911488318136           0.47420121470434407          0.9683359631255629 1.0000   
         H         H         1.0       0.28888521761226577           0.4600972191332241 0.9357811874927568 1.0000   
         C         C         1.0       0.40169892258878853           0.4586158200113258 0.9588559926613556 1.0000   
         C         C         1.0       0.39197836965486943           0.4518819989087564 0.9828120994889012 1.0000   
         C         C         1.0       0.4204608016103668  0.470264059454984   0.9983695468715654 1.0000   
         C         C         1.0       0.4767217055342542  0.48858188460258395           0.5001857945368173 1.0000   
         C         C         1.0       0.4665077603405556  0.5073468375568984  0.9669701600487534 1.0000   
         C         C         1.0       0.43738198596382755           0.48679591326168925          0.9506798006051503 1.0000   
         C         C         1.0       0.34773205495943427           0.4203633265193353 0.992423129225972  1.0000   
         C         C         1.0       0.3555025442900701  0.3859708375010497  0.9949825295755242 1.0000   
         C         C         1.0       0.36407434064381533           0.3650415175549734 0.5073168757179015 1.0000   
         C         C         1.0       0.3703374692430781  0.3353103140203033  0.5104382127019554 1.0000   
         C         C         1.0       0.3719952991345258  0.3264022578866078  0.0003798541227382213        1.0000   
         C         C         1.0       0.36901125242103244           0.33810885709159827          0.9773355184213236 1.0000   
         C         C         1.0       0.361390118936451   0.36707683406003816           0.9748891483376261 1.0000   
         C         C         1.0       0.36220248510887454           0.46352136707722896          0.5170175308836121 1.0000   
         C         C         1.0       0.3454726833196946  0.4625620918987837  0.5395941391475525 1.0000   
         C         C         1.0       0.31268565827092726           0.4299379803201282 0.5478664928086567 1.0000   
         C         C         1.0       0.2926800891978711  0.39998310264226794           0.5320308268963274 1.0000   
         C         C         1.0       0.3105307462234258  0.40138836353499735           0.509856718008112  1.0000   
         C         C         1.0       0.3281793234300288  0.4292877652443864  0.015783022974538152         1.0000   
         C         C         1.0       0.30026168598898667           0.4242327297644104 0.5747827605067952 1.0000   
         C         C         1.0       0.3354066223761257  0.34175033839908614           0.5961111728783574 1.0000   
         C         C         1.0       0.36235172139217303           0.3796368361353202 0.5901284125718036 1.0000   
         C         C         1.0       0.3505666960258265  0.4035641641373014  0.5826788812344894 1.0000   
         C         C         1.0       0.31247881525207627           0.39278017703611395          0.5823302327084527 1.0000   
         C         C         1.0       0.2864347288765941  0.35488673666039977           0.5874208407142831 1.0000   
         C         C         1.0       0.2973158049510475  0.33027545900834104           0.5971569991211737 1.0000   
         C         C         1.0       0.25452236801376804           0.4090428032060884 0.5803622401572543 1.0000   
         C         C         1.0       0.22994444350244603           0.40938991006709285          0.5630257770791558 1.0000   
         C         C         1.0       0.19174405676744408           0.3956639110815182 0.5676530402750786 1.0000   
         C         C         1.0       0.17707698452832693           0.3842304925402609 0.5906128668149287 1.0000   
         C         C         1.0       0.20098949330282279           0.3857709731483247 0.6084324415174258 1.0000   
         C         C         1.0       0.23932819416912193           0.40009605386621566          0.6044506990208943 1.0000   
         C         C         1.0       0.33437319433595275           0.4611903850234614 0.6159715677257775 1.0000   
         C         C         1.0       0.35137706731942175           0.49378285050822873          0.6308470421845658 1.0000   
         C         C         1.0       0.3509820102456229  0.5266224980251174  0.6250551112641107 1.0000   
         C         C         1.0       0.33358946069342627           0.5267007510037961 0.6046255655285944 1.0000   
         C         C         1.0       0.3193753256401718  0.4950477366399625  0.588512018614193  1.0000   
         C         C         1.0       0.31989424368324665           0.4607770084257362 0.5933093603723277 1.0000   
         H         H         1.0       0.37876903884103463           0.4448275857077374 0.9446612195207169 1.0000   
         H         H         1.0       0.4234098188194172  0.4517797791894405  0.5175313391276629 1.0000   
         H         H         1.0       0.4927208847294069  0.49845564456066305           0.5163420679282027 1.0000   
         H         H         1.0       0.4459262724335212  0.4932221789960151  0.9324289714809354 1.0000   
         H         H         1.0       0.36065441909421336           0.3772395281021792 0.5233419074102851 1.0000   
         H         H         1.0       0.37226067519063705           0.32764663273367145          0.5284479051689586 1.0000   
         H         H         1.0       0.3714757684791493  0.32500052165773746           0.9612259745304972 1.0000   
         H         H         1.0       0.36009898101309823           0.3744235703764817 0.9558359069783566 1.0000   
         H         H         1.0       0.38980676932082287           0.48850632188456067          0.5117178774262664 1.0000   
         H         H         1.0       0.36060133281455786           0.4864046311116907 0.5521340064383559 1.0000   
         H         H         1.0       0.2646667661117124  0.37383121268630953           0.5349588132397275 1.0000   
         H         H         1.0       0.279414612282755   0.37195767115386885           0.01778515553156801          1.0000   
         H         H         1.0       0.39315543024302513           0.3907148315142951 0.5885060378368994 1.0000   
         H         H         1.0       0.3700368676510309  0.4335961355891475  0.5785796991554222 1.0000   
         H         H         1.0       0.2550962979208254  0.34273988303707725           0.58729601986958   1.0000   
         H         H         1.0       0.27570344018317333           0.30028762117167807          0.6021074756216257 1.0000   
         H         H         1.0       0.24188533019539873           0.4203942839660415 0.5457344192081846 1.0000   
         H         H         1.0       0.17307531123535916           0.39613294892049994          0.5549962681085526 1.0000   
         H         H         1.0       0.19071012830145326           0.37761438720870866          0.6272653488297781 1.0000   
         H         H         1.0       0.25922227260229225           0.4014119105648123 0.6185578639508734 1.0000   
         H         H         1.0       0.3363236546873749  0.4362569686866252  0.6217587976347321 1.0000   
         H         H         1.0       0.3636020987365577  0.49091192019736946           0.6463002431117199 1.0000   
         H         H         1.0       0.3323235161285483  0.5523681004284037  0.6009732128897737 1.0000   
         H         H         1.0       0.3062623976443909  0.49651304672602276           0.5722153519543685 1.0000   
         C         C         1.0       0.906154526512526   0.26854289561043526           0.5197753508500099 1.0000   
         C         C         1.0       0.9389773520261433  0.27229127850725965           0.5288114084013481 1.0000   
         C         C         1.0       0.9513372801303256  0.28850549880969856           0.551568180280801  1.0000   
         C         C         1.0       0.9355340474625388  0.3095745179096383  0.5626845616034551 1.0000   
         C         C         1.0       0.8990090456947509  0.3018768514110708  0.5544440025205979 1.0000   
         C         C         1.0       0.8859743402304523  0.2816960805705555  0.5330057815919346 1.0000   
         H         H         1.0       0.9539932955720162  0.2594100424243814  0.5196448120181211 1.0000   
         H         H         1.0       0.9761687680130339  0.2880104638079921  0.5592205733968801 1.0000   
         H         H         1.0       0.8826518675434186  0.3126760002122921  0.5633589787467331 1.0000   
         H         H         1.0       0.8604998752007649  0.28117323148590545           0.527246944410112  1.0000   
         C         C         1.0       0.9616111995164708  0.3942050400527785  0.5640662378220992 1.0000   
         C         C         1.0       0.9552621912787613  0.37441181762539083           0.5847944815424989 1.0000   
         C         C         1.0       0.953836167805248   0.3938662053044721  0.6062159906497647 1.0000   
         C         C         1.0       0.9526791287277726  0.42714169656390477           0.6052801201636051 1.0000   
         C         C         1.0       0.9575656178826517  0.4445557859601694  0.5836089199307268 1.0000   
         C         C         1.0       0.9632824921017528  0.4286635315080819  0.5628499019214137 1.0000   
         C         C         1.0       0.9560889831077998  0.33523091851312187           0.5869451245890063 1.0000   
         C         C         1.0       0.00046828281464406096        0.34957048165191756          0.5918712607715076 1.0000   
         C         C         1.0       0.014447524962412972          0.35504936114924684          0.6152534562915013 1.0000   
         C         C         1.0       0.055017634531064126          0.3729757104936225 0.617932743309315  1.0000   
         C         C         1.0       0.08033138379213094           0.38156066168610153          0.5978892507458166 1.0000   
         C         C         1.0       0.06481763187536484           0.37569591185480183          0.5752714791824961 1.0000   
         C         C         1.0       0.027272659823958767          0.3628409862171953 0.5724797349830877 1.0000   
         C         C         1.0       0.9025086469290072  0.3053616649813755  0.6215213157555506 1.0000   
         C         C         1.0       0.8824651840261554  0.279736054650723   0.6396695767249373 1.0000   
         C         C         1.0       0.8889213749750746  0.24955299816233184           0.6441728783714035 1.0000   
         C         C         1.0       0.9159368626841728  0.24665643154198288           0.6285625225015024 1.0000   
         C         C         1.0       0.9330136423882979  0.2701477260505523  0.6091707413038251 1.0000   
         C         C         1.0       0.9285972153609124  0.3023755856944912  0.6062432349920306 1.0000   
         C         C         1.0       0.8816002834543866  0.2321674016706865  0.6712394541377158 1.0000   
         C         C         1.0       0.9941282429414001  0.3013542449368777  0.7034438212224133 1.0000   
         C         C         1.0       0.9714743416382058  0.31825205266642526           0.7006462569774425 1.0000   
         C         C         1.0       0.9368127002968056  0.29669954750281097           0.6895268077390042 1.0000   
         C         C         1.0       0.9238055870138353  0.2585227398565621  0.6824285426531433 1.0000   
         C         C         1.0       0.9483930913409665  0.2433541625387075  0.6845914367705426 1.0000   
         C         C         1.0       0.9831296986472898  0.2658051631899311  0.6954807134349692 1.0000   
         C         C         1.0       0.8658064182548344  0.18780639270147267           0.6705780067128254 1.0000   
         C         C         1.0       0.8450456293805921  0.16364596764872483           0.6511414731317001 1.0000   
         C         C         1.0       0.8357589197814028  0.12687673660765547           0.6486734914259733 1.0000   
         C         C         1.0       0.8462926462680614  0.10990201727264388           0.6666353698369688 1.0000   
         C         C         1.0       0.8614365325487375  0.12995008481238363           0.687729538074941  1.0000   
         C         C         1.0       0.8698936009802695  0.16846065895430937           0.6899709131781777 1.0000   
         C         C         1.0       0.8500251576990915  0.24251213150830422           0.710414795983494  1.0000   
         C         C         1.0       0.8227492687533214  0.24810658562498156           0.721860828265904  1.0000   
         C         C         1.0       0.7872402205662846  0.23549497090747556           0.7114020911705133 1.0000   
         C         C         1.0       0.7831748544258296  0.22298534730936348           0.6873909874112955 1.0000   
         C         C         1.0       0.8132310352198421  0.21940739295251122           0.6759921452611669 1.0000   
         C         C         1.0       0.8479900267955259  0.23286354673822365           0.6861571176892917 1.0000   
         H         H         1.0       0.9636350974572616  0.38128305230114995           0.5477511265644591 1.0000   
         H         H         1.0       0.95049405199995    0.3782553311213337  0.6238944741863178 1.0000   
         H         H         1.0       0.9467291896413338  0.4387110686268919  0.6223680514294979 1.0000   
         H         H         1.0       0.9699934906048366  0.4439705238973305  0.5463301795288663 1.0000   
         H         H         1.0       0.9962169591860369  0.3422184961828699  0.6319940780783282 1.0000   
         H         H         1.0       0.06941027056623772           0.3764146781265959 0.6356840449473452 1.0000   
         H         H         1.0       0.08118142932875193           0.3851855561682197 0.5585120986673667 1.0000   
         H         H         1.0       0.014105296221675667          0.3595656740149718 0.5547157597478531 1.0000   
         H         H         1.0       0.8950131280867742  0.32779875619343374           0.6194141129508708 1.0000   
         H         H         1.0       0.865414350625707   0.2872261134351378  0.6522178077092262 1.0000   
         H         H         1.0       0.924530428233695   0.22674898706833976           0.6320066809064985 1.0000   
         H         H         1.0       0.9518425996367139  0.2641529187573863  0.5978392312036168 1.0000   
         H         H         1.0       0.981699312205643   0.34806522097527376           0.7067857207258865 1.0000   
         H         H         1.0       0.919870341797008   0.31095956093124066           0.6855389617690387 1.0000   
         H         H         1.0       0.9446829407907366  0.21813225965387356           0.6772538273027129 1.0000   
         H         H         1.0       0.0041548683881486685         0.25689581706839093          0.6982463616929971 1.0000   
         H         H         1.0       0.8358069726837158  0.17506632789036924           0.6382765272295968 1.0000   
         H         H         1.0       0.8238923822065878  0.11273423988181672           0.6314446053519062 1.0000   
         H         H         1.0       0.8718695881469252  0.11951635462702422           0.7016064217043334 1.0000   
         H         H         1.0       0.8833418342404493  0.1863870964618648  0.7067274646718276 1.0000   
         H         H         1.0       0.8749639188129692  0.24911968192628303           0.7211834571978917 1.0000   
         H         H         1.0       0.8289875549028456  0.2609676440522726  0.7395481473466742 1.0000   
         H         H         1.0       0.7580245189419347  0.21423284594160916           0.677220672815546  1.0000   
         H         H         1.0       0.8075728366593601  0.20545517101780722           0.6580297030962357 1.0000   
         C         C         1.0       0.4730211930295242  0.24364616235839498           0.8450120584293159 1.0000   
         C         C         1.0       0.49781574202270606           0.23078751281990015          0.8465277117427062 1.0000   
         C         C         1.0       0.49386367157203837           0.20521731713624403          0.8644525361516153 1.0000   
         C         C         1.0       0.463172186775016   0.19041777860824965           0.880910900957967  1.0000   
         C         C         1.0       0.437954291075483   0.20475374410988034           0.8795198879869235 1.0000   
         C         C         1.0       0.4428286136848041  0.2319627497712489  0.861705611912437  1.0000   
         H         H         1.0       0.5204599555883549  0.2366825546184571  0.8324228847396841 1.0000   
         H         H         1.0       0.5151168827972953  0.19598598695513078           0.8660744829470419 1.0000   
         H         H         1.0       0.412265228265415   0.19649863688317395           0.8911602441951729 1.0000   
         H         H         1.0       0.42226320414152796           0.2416469190193429 0.8596177913172874 1.0000   
         C         C         1.0       0.5227778444857851  0.1747576784219253  0.9083285002774951 1.0000   
         C         C         1.0       0.48739866980423047           0.14432944925152702          0.9010777413599841 1.0000   
         C         C         1.0       0.4819453227887404  0.10618423128425854           0.8988914292799126 1.0000   
         C         C         1.0       0.5120911981870214  0.10042503453895657           0.902495036923505  1.0000   
         C         C         1.0       0.5485026361732885  0.13236119973728308           0.9090102890641433 1.0000   
         C         C         1.0       0.5530051155586977  0.16823949103163183           0.9120318182947069 1.0000   
         C         C         1.0       0.45320533556113873           0.15419680038696723          0.8971469532081411 1.0000   
         C         C         1.0       0.4192874094124963  0.11954894316481357           0.8811399601389237 1.0000   
         C         C         1.0       0.38024120543498985           0.10661453859222764          0.8858014915541395 1.0000   
         C         C         1.0       0.3514163197749684  0.08525831694267395           0.8691812264350993 1.0000   
         C         C         1.0       0.3616478251265775  0.07421267932733756           0.8471395979101152 1.0000   
         C         C         1.0       0.3999571395450753  0.08613050210748881           0.842656223929683  1.0000   
         C         C         1.0       0.4272016763778012  0.10710667197050386           0.8594541573271143 1.0000   
         C         C         1.0       0.4234263245710879  0.12067619929627532           0.9385981217057077 1.0000   
         C         C         1.0       0.41435555414009834           0.12016458856271399          0.9621760487900599 1.0000   
         C         C         1.0       0.41874975728347047           0.153395053682997  0.9742281975562875 1.0000   
         C         C         1.0       0.43986757742448    0.18938337927666052           0.9615864504593551 1.0000   
         C         C         1.0       0.4500958562053512  0.1891167869614845  0.9365356789801433 1.0000   
         C         C         1.0       0.44035871421410816           0.15452473099609626          0.9245654207398242 1.0000   
         C         C         1.0       0.4070023856999144  0.15178127551549542           0.0013782878704144963        1.0000   
         C         C         1.0       0.2842202461926502  0.02668368665738907           0.4757862394930517 1.0000   
         C         C         1.0       0.3000433730123842  0.03927587757849575           0.49847282878599786          1.0000   
         C         C         1.0       0.33361889705082154           0.07417350466768591          0.5009452045892187 1.0000   
         C         C         1.0       0.3756025524297253  0.10871365702342092           0.010903888365216385         1.0000   
         C         C         1.0       0.34486822945079415           0.08616457903431271          0.9968843386767863 1.0000   
         C         C         1.0       0.3142315369365345  0.05211662372841204           0.005784000697287794         1.0000   
         C         C         1.0       0.38800812352259717           0.1769778121172276 0.006426780731334514         1.0000   
         C         C         1.0       0.3945770834168044  0.18277537526413984           0.5118761547419292 1.0000   
         C         C         1.0       0.38298344553528907           0.20910299168349672          0.5176910738038211 1.0000   
         C         C         1.0       0.3651564962554348  0.21993344969198936           0.5011971942423423 1.0000   
         C         C         1.0       0.3462994653464574  0.20086977616318177           0.9920158868274198 1.0000   
         C         C         1.0       0.3635002235254944  0.17907240195571153           0.9890872286656137 1.0000   
         C         C         1.0       0.4752526202121553  0.20836014020037738           0.010750060006691653         1.0000   
         C         C         1.0       0.4915095419166624  0.16421940420128306           0.5182773559296173 1.0000   
         C         C         1.0       0.4812579733669283  0.1304985824588591  0.5308076112928685 1.0000   
         C         C         1.0       0.4466161725336511  0.09777483894408219           0.5262031597568755 1.0000   
         C         C         1.0       0.4219768244153642  0.09971421222516746           0.5104661942812256 1.0000   
         C         C         1.0       0.44915514659353256           0.16906441978366532          0.012087199283602468         1.0000   
         H         H         1.0       0.5263082721886347  0.20295378029813074           0.9079390464026016 1.0000   
         H         H         1.0       0.4569763938110899  0.08279291326967682           0.892442930095527  1.0000   
         H         H         1.0       0.5075948799328834  0.07165321503327017           0.8988519923427127 1.0000   
         H         H         1.0       0.5789274241266333  0.19317947362321922           0.9194177716666695 1.0000   
         H         H         1.0       0.37223652594027423           0.11017607605755152          0.9040651173465559 1.0000   
         H         H         1.0       0.3213057339974108  0.07489591758038797           0.8733162914315731 1.0000   
         H         H         1.0       0.40567307492788235           0.07835993061495665          0.8248905579308442 1.0000   
         H         H         1.0       0.4582079920489918  0.12104961075417993           0.8546977506962479 1.0000   
         H         H         1.0       0.4177450522356183  0.09316347977815528           0.9309105131492205 1.0000   
         H         H         1.0       0.40087006539863845           0.09356634420804776          0.9723212997894335 1.0000   
         H         H         1.0       0.44822717012556657           0.21756732725518818          0.968686171125056  1.0000   
         H         H         1.0       0.4655993249440795  0.21655821547651122           0.9266822020902333 1.0000   
         H         H         1.0       0.28865595251772985           0.022815231687949387         0.5154623883635687 1.0000   
         H         H         1.0       0.3492244807165435  0.08326056074254333           0.5170575944410728 1.0000   
         H         H         1.0       0.34047016046564443           0.09870815827364696          0.9814766086698512 1.0000   
         H         H         1.0       0.2873169005712588  0.036219890804312434         0.9954478408298102 1.0000   
         H         H         1.0       0.40745336172009267           0.17722382790047572          0.5277477036716641 1.0000   
         H         H         1.0       0.3892075327497081  0.22090572193924765           0.5352653199798111 1.0000   
         H         H         1.0       0.3328005641417337  0.20526995303132556           0.9772985916054255 1.0000   
         H         H         1.0       0.35564965127178494           0.1592439779990851 0.9730322334665098 1.0000   
         H         H         1.0       0.4674879803978688  0.2291427762012173  0.0036230716331129287        1.0000   
         H         H         1.0       0.5196227469588578  0.19142092741208708           0.5208246419058102 1.0000   
         H         H         1.0       0.4372566634856344  0.07111221040139232           0.5335141668318045 1.0000   
         H         H         1.0       0.4001030544015514  0.0747575727059731  0.504745048027406  1.0000   
         C         C         1.0       0.8209609095432857  0.19495240697485666           0.9626552840007481 1.0000   
         C         C         1.0       0.8375194121519847  0.18844354669647773           0.9418276242163311 1.0000   
         C         C         1.0       0.8158782910028329  0.17053344644694926           0.922819738940745  1.0000   
         C         C         1.0       0.7765455685245544  0.15613049922873204           0.9232320303478817 1.0000   
         C         C         1.0       0.760667869114505   0.16263882798904866           0.9440530199950247 1.0000   
         C         C         1.0       0.7816785708803268  0.18102516724970735           0.9634471148633507 1.0000   
         H         H         1.0       0.8681132763686906  0.19907004620495006           0.9420510548706912 1.0000   
         H         H         1.0       0.8300134331590707  0.16680660513783951           0.9067802839751927 1.0000   
         H         H         1.0       0.7295559411304054  0.1440169685946964  0.9457664872916869 1.0000   
         H         H         1.0       0.7698373787316636  0.18101365651395335           0.9814549514070275 1.0000   
         C         C         1.0       0.712681764047397   0.1705265248502852  0.9027538514713362 1.0000   
         C         C         1.0       0.7114138654141731  0.13572204348152514           0.9001751923557156 1.0000   
         C         C         1.0       0.6765763978785034  0.10372273578681859           0.89377214428207   1.0000   
         C         C         1.0       0.6432292670547176  0.10528420796053099           0.889479362201785  1.0000   
         C         C         1.0       0.6464409341641213  0.14115626067589854           0.8917682830102805 1.0000   
         C         C         1.0       0.6808808230410953  0.1731093759309446  0.8963614083721151 1.0000   
         C         C         1.0       0.749143328775393   0.1322623870793544  0.9020608852131504 1.0000   
         C         C         1.0       0.7480798214114898  0.09256259639737283           0.9092170164227146 1.0000   
         C         C         1.0       0.7723122229627474  0.07922487501229875           0.8988801338044741 1.0000   
         C         C         1.0       0.7641852825582057  0.04235638358866368           0.9016368461438113 1.0000   
         C         C         1.0       0.7311921631731136  0.01573964264988667           0.9132824542739965 1.0000   
         C         C         1.0       0.7080911705248347  0.027423108865294213         0.924256836095017  1.0000   
         C         C         1.0       0.7179832254127415  0.065911104086884   0.9238631213049856 1.0000   
         C         C         1.0       0.751615935973126   0.1186761985779793  0.8568212106521268 1.0000   
         C         C         1.0       0.7678197762178861  0.12720650701490338           0.834306215434429  1.0000   
         C         C         1.0       0.8000979955697904  0.16354828421065212           0.8284011776622139 1.0000   
         C         C         1.0       0.8121233754951647  0.19129173951916076           0.8464985602194918 1.0000   
         C         C         1.0       0.7963222454336304  0.1821683861952157  0.8698075743470828 1.0000   
         C         C         1.0       0.7663191538756585  0.14546872717844678           0.8753086457046206 1.0000   
         C         C         1.0       0.8200423904420924  0.17184785832376742           0.8019298722752001 1.0000   
         C         C         1.0       0.828076496219902   0.07310696946502979           0.7725568398211435 1.0000   
         C         C         1.0       0.8260752766360505  0.09809352029510339           0.7574455682566303 1.0000   
         C         C         1.0       0.8265542255802     0.13105948561657393           0.7673251635353572 1.0000   
         C         C         1.0       0.8252190313734707  0.13677272215477915           0.7918120638042654 1.0000   
         C         C         1.0       0.8317427177759201  0.11253721295253698           0.8066958746039464 1.0000   
         C         C         1.0       0.83146323569728    0.08060246234282084           0.7968752557082658 1.0000   
         C         C         1.0       0.8640833657565076  0.2060463883079406  0.8004626106572467 1.0000   
         C         C         1.0       0.8900033777824676  0.21193781206873338           0.8185303516051133 1.0000   
         C         C         1.0       0.9293586388935077  0.2404801327015354  0.8167494491646017 1.0000   
         C         C         1.0       0.942133284914223   0.2643358402031133  0.7964363749700188 1.0000   
         C         C         1.0       0.9168732195983513  0.25965025139114295           0.7793759206971131 1.0000   
         C         C         1.0       0.8794166855840089  0.23094096503270062           0.781072840863148  1.0000   
         C         C         1.0       0.7930168314415664  0.21655048721049117           0.7910834281202469 1.0000   
         C         C         1.0       0.7692768867980846  0.22345327768532122           0.7771597298858441 1.0000   
         C         C         1.0       0.7456116078041051  0.19670872804201114           0.7602824438417652 1.0000   
         C         C         1.0       0.738062037501364   0.15932826312374399           0.7624254946672938 1.0000   
         C         C         1.0       0.7600979315470764  0.15216275695103526           0.7766300647190411 1.0000   
         C         C         1.0       0.7898112955426747  0.1802112877725575  0.7898991849006649 1.0000   
         H         H         1.0       0.7383598166945012  0.1960054010043578  0.9074669378449396 1.0000   
         H         H         1.0       0.6742944849830278  0.07511544532827032           0.8912115003494843 1.0000   
         H         H         1.0       0.6150800390378666  0.08059934309416436           0.8834698658635447 1.0000   
         H         H         1.0       0.6832059594456165  0.199615710070962   0.8984711033417807 1.0000   
         H         H         1.0       0.7938734787037003  0.09609823710301836           0.8842741905873411 1.0000   
         H         H         1.0       0.7847295288545337  0.036986706590045014         0.8925717983026507 1.0000   
         H         H         1.0       0.6822913002326743  0.008268957454269144         0.9346768385034196 1.0000   
         H         H         1.0       0.7032703794889177  0.07778943889638058           0.9331414657373172 1.0000   
         H         H         1.0       0.7239998037424185  0.09193593188990065           0.8601183290667591 1.0000   
         H         H         1.0       0.7568889704585525  0.10490149585749575           0.8198636823838279 1.0000   
         H         H         1.0       0.836091378451277   0.21895068423355976           0.8433507470739966 1.0000   
         H         H         1.0       0.8062360833472246  0.20531625976677606           0.8832569922424246 1.0000   
         H         H         1.0       0.8286669416324511  0.09521384509290005           0.737607872106787  1.0000   
         H         H         1.0       0.8285669092430746  0.1526498706421646  0.7542282832139626 1.0000   
         H         H         1.0       0.8399012521367812  0.11943606159230614           0.8257939036322366 1.0000   
         H         H         1.0       0.8347850146282842  0.06147082930855116           0.8090626468530401 1.0000   
         H         H         1.0       0.879613715088518   0.19471431602691827           0.8349298668962544 1.0000   
         H         H         1.0       0.9475486062814326  0.2427352692175223  0.8311436701398043 1.0000   
         H         H         1.0       0.9278081268753076  0.27898505617296215           0.7647986825102313 1.0000   
         H         H         1.0       0.8637289036892707  0.22259520694762555           0.7641529605489054 1.0000   
         H         H         1.0       0.8136384788029875  0.2375667542093335  0.803128044488504  1.0000   
         H         H         1.0       0.7750354991815829  0.25215524919966553           0.775720655814602  1.0000   
         H         H         1.0       0.7184796688601808  0.13597740208514417           0.7516988835615606 1.0000   
         H         H         1.0       0.7549152640916099  0.12117327812434622           0.7757842071746864 1.0000   
         C         C         1.0       0.3161771273489044  0.8405790256577426  0.6862676242093331 1.0000   
         C         C         1.0       0.30121932986674127           0.832827624523749  0.6636461179009985 1.0000   
         C         C         1.0       0.32100573816642486           0.8590213856163886 0.6449358774361916 1.0000   
         C         C         1.0       0.3550952425924908  0.8943096662501664  0.6488014206147898 1.0000   
         C         C         1.0       0.370992162727341   0.8977097080719946  0.6714999145163522 1.0000   
         C         C         1.0       0.35233265198804964           0.8701745008130688 0.689251172275454  1.0000   
         H         H         1.0       0.27424018416542884           0.804793668491505  0.660056853825409  1.0000   
         H         H         1.0       0.30630420726841606           0.8538781729164763 0.6282991819055164 1.0000   
         H         H         1.0       0.39982032675506085           0.9228642616902831 0.6744136455641578 1.0000   
         H         H         1.0       0.36776926355253264           0.8773515566063408 0.7047525761407368 1.0000   
         C         C         1.0       0.4370179534652065  0.929225748963064   0.6310039893840819 1.0000   
         C         C         1.0       0.4192100119999758  0.9512454766633514  0.6292763721148832 1.0000   
         C         C         1.0       0.43980919474640784           0.9889513338314941 0.6210795890609385 1.0000   
         C         C         1.0       0.47719794077430744           0.0030364158337214953        0.6143504756553752 1.0000   
         C         C         1.0       0.495359753000807   0.9811736285024862  0.6153230658102503 1.0000   
         C         C         1.0       0.47428319590487567           0.9441874729994071 0.6246801116341807 1.0000   
         C         C         1.0       0.37504055576740375           0.9324073109774194 0.6312448714954244 1.0000   
         C         C         1.0       0.35409770235536675           0.9551763157478463 0.6418602271908342 1.0000   
         C         C         1.0       0.31490195478524097           0.9402402828130816 0.6383301434375199 1.0000   
         C         C         1.0       0.2948313177721167  0.9549861108397782  0.6496442015776147 1.0000   
         C         C         1.0       0.3133111796750988  0.9868742008842717  0.6641996789605539 1.0000   
         C         C         1.0       0.352034185372727   0.0023384487208795153        0.6689138764761487 1.0000   
         C         C         1.0       0.37201781107495335           0.9863655822158522 0.6576505060035491 1.0000   
         C         C         1.0       0.3618542718668438  0.945375010218553   0.5877645887897749 1.0000   
         C         C         1.0       0.3446774440889719  0.9341267925716078  0.5653831931889428 1.0000   
         C         C         1.0       0.3375841102678945  0.8984509481049924  0.5562879331151099 1.0000   
         C         C         1.0       0.34866991581584167           0.8775190320236194 0.568606166776916  1.0000   
         C         C         1.0       0.3610279267200207  0.8883400576634496  0.5922561270695945 1.0000   
         C         C         1.0       0.3651257517383387  0.9213850514639312  0.6039699952850227 1.0000   
         C         C         1.0       0.31046329040367315           0.8795000750988403 0.5338561314987379 1.0000   
         C         C         1.0       0.2758782871481884  0.9368833614874728  0.4827851204148289 1.0000   
         C         C         1.0       0.3133433992300008  0.9556637707804426  0.49245502056913215          1.0000   
         C         C         1.0       0.32227756950204434           0.937447452498032  0.5101313749259329 1.0000   
         C         C         1.0       0.2955584186750907  0.9016858771482571  0.5180779262984978 1.0000   
         C         C         1.0       0.25855516420303076           0.8833406175266633 0.5080477101842368 1.0000   
         C         C         1.0       0.24931446133190457           0.9008124073274246 0.4897096134650766 1.0000   
         C         C         1.0       0.273879222782755   0.8487080287263793  0.5506643880510413 1.0000   
         C         C         1.0       0.2589284009352754  0.8086045100833157  0.5498451750310783 1.0000   
         C         C         1.0       0.22390095356923972           0.7825442797719916 0.5584032324099247 1.0000   
         C         C         1.0       0.20231967953207974           0.7951999413131122 0.5708540456729987 1.0000   
         C         C         1.0       0.21764860684531856           0.8335400522864183 0.5749794523128927 1.0000   
         C         C         1.0       0.2520638199133295  0.8599380536387834  0.5644862505452407 1.0000   
         C         C         1.0       0.3026871044272168  0.8343321315564899  0.4963184053714206 1.0000   
         C         C         1.0       0.32262964004523    0.8359648917088234  0.9627324062211119 1.0000   
         C         C         1.0       0.36156174389163365           0.8514548985990107 0.9683205464823512 1.0000   
         C         C         1.0       0.3818854150358459  0.8796167785670422  0.4874022020780067 1.0000   
         C         C         1.0       0.36438218824569063           0.8815369814967913 0.5085153774660937 1.0000   
         C         C         1.0       0.3259650086503742  0.8626060552693056  0.5128779394614471 1.0000   
         H         H         1.0       0.4205043946923902  0.8981195148682294  0.6361004201941098 1.0000   
         H         H         1.0       0.424199187286354   0.003975472699953242         0.6178918377712692 1.0000   
         H         H         1.0       0.49110278841287147           0.03202368843548231          0.6075036731856418 1.0000   
         H         H         1.0       0.4877174938778076  0.9267007277593429  0.6268010807724204 1.0000   
         H         H         1.0       0.2989781262826469  0.9126604985588413  0.6277785512143078 1.0000   
         H         H         1.0       0.2635386964245268  0.9395912476440356  0.6472440701886749 1.0000   
         H         H         1.0       0.3631612417164629  0.027830104621772163         0.6806781846711566 1.0000   
         H         H         1.0       0.40163499659314794           0.9997257545334334 0.6589899687731192 1.0000   
         H         H         1.0       0.3675334077765705  0.9742548243716493  0.5928992815423587 1.0000   
         H         H         1.0       0.3339416097969688  0.9496143297653871  0.5554923435428125 1.0000   
         H         H         1.0       0.3414046886383048  0.8498299671185494  0.5603689435820043 1.0000   
         H         H         1.0       0.36848503590226156           0.8701005735947072 0.6029434897122351 1.0000   
         H         H         1.0       0.2961531234236771  0.9568107211675985  0.9921551515369711 1.0000   
         H         H         1.0       0.35308034211480327           0.950212143820742  0.5146636721423385 1.0000   
         H         H         1.0       0.23687971385250725           0.8560016156905647 0.514413638155636  1.0000   
         H         H         1.0       0.2217756607129224  0.8889413323594378  0.48394904539296835          1.0000   
         H         H         1.0       0.2733414611252756  0.7972117353208369  0.5385712099614768 1.0000   
         H         H         1.0       0.2132180486618891  0.7522124916521015  0.5562138159938187 1.0000   
         H         H         1.0       0.20183332506768661           0.843434672732296  0.5856437906869826 1.0000   
         H         H         1.0       0.2606185715280703  0.8888567451940212  0.5665642897611131 1.0000   
         H         H         1.0       0.2684186055618427  0.8228772002336503  0.9753597750589033 1.0000   
         H         H         1.0       0.31351234714575404           0.8259337419701707 0.9446763316091005 1.0000   
         H         H         1.0       0.41295069500586173           0.9001892926729387 0.48292325915798795          1.0000   
         H         H         1.0       0.3817873446586985  0.9047046141522158  0.519642317650096  1.0000   
         C         C         1.0       0.22551843286824835           0.4091084306550892 0.8730002567812092 1.0000   
         C         C         1.0       0.19449533668556798           0.37888402024082846          0.8619093292473996 1.0000   
         C         C         1.0       0.17482504798889562           0.3845739033834979 0.844093071435594  1.0000   
         C         C         1.0       0.1878952984112358  0.42297223144570906           0.8371293207077461 1.0000   
         C         C         1.0       0.21977860903693677           0.45312370924079537          0.8485281921768296 1.0000   
         C         C         1.0       0.23895764384215734           0.44508128098170113          0.865571990037362  1.0000   
         H         H         1.0       0.18272978236560652           0.35007267284979615          0.8673307346025336 1.0000   
         H         H         1.0       0.14923481456777046           0.36174345941811326          0.833457906584067  1.0000   
         H         H         1.0       0.23313055356322962           0.4841548467019796 0.8431361824281903 1.0000   
         H         H         1.0       0.2644614254622891  0.4696704431817861  0.8725444902631946 1.0000   
         C         C         1.0       0.16324694516746072           0.48461668913848427          0.8456379634638395 1.0000   
         C         C         1.0       0.16576775253186338           0.4742508338386492 0.8221143687388378 1.0000   
         C         C         1.0       0.1681283576689134  0.4983070755592029  0.8039124849108894 1.0000   
         C         C         1.0       0.17741218505306103           0.5357665182412203 0.8094626525683936 1.0000   
         C         C         1.0       0.1762648321693845  0.5461607269244243  0.833671704797023  1.0000   
         C         C         1.0       0.16632310184999907           0.5193989634715139 0.8514733218182614 1.0000   
         C         C         1.0       0.16698585130044183           0.4343007937503783 0.8176096122321799 1.0000   
         C         C         1.0       0.1219251193162697  0.4056152161022064  0.8143320170616947 1.0000   
         C         C         1.0       0.10457490215618993           0.4010350859311764 0.7916163910564742 1.0000   
         C         C         1.0       0.06453718741810711           0.37632442335938904          0.7906211532807909 1.0000   
         C         C         1.0       0.041408970383355316          0.3579638625377619 0.8108248071006673 1.0000   
         C         C         1.0       0.05924027013142761           0.362228466948038  0.8319691225549269 1.0000   
         C         C         1.0       0.09769529348284146           0.3867803093639259 0.8343837454171834 1.0000   
         C         C         1.0       0.22100901960027258           0.4683451705456983 0.7831939284115965 1.0000   
         C         C         1.0       0.2298513973540179  0.46774303708826104           0.7587957129858629 1.0000   
         C         C         1.0       0.2164668812108546  0.4322072709872761  0.7468474569158848 1.0000   
         C         C         1.0       0.19299303744450164           0.3994332012999757 0.7600481073704451 1.0000   
         C         C         1.0       0.1802297795403689  0.4010736756851868  0.7825787166212977 1.0000   
         C         C         1.0       0.19069534666742421           0.43540444534549533          0.7940284365616894 1.0000   
         C         C         1.0       0.22570616891398498           0.42950667932647557          0.7191549945317751 1.0000   
         C         C         1.0       0.10477226582759698           0.37657993823202707          0.6976088066838888 1.0000   
         C         C         1.0       0.12648994562962257           0.4157176415068091 0.7018302839975102 1.0000   
         C         C         1.0       0.16258031194498293           0.431458767025377  0.709878133905429  1.0000   
         C         C         1.0       0.18224763783808243           0.4111546687674442 0.7104586202673555 1.0000   
         C         C         1.0       0.16084705741679325           0.37102376776229146          0.7044863108805166 1.0000   
         C         C         1.0       0.12242603957458442           0.35378373065802016          0.6987492245712175 1.0000   
         C         C         1.0       0.24502457246660006           0.40210832990899686          0.7147351672505032 1.0000   
         C         C         1.0       0.26778619643917817           0.4007718392811467 0.7330426186323847 1.0000   
         C         C         1.0       0.28768845590528414           0.38231847578648204          0.7303348137217074 1.0000   
         C         C         1.0       0.28472108942278274           0.3643188539767046 0.7082326116023805 1.0000   
         C         C         1.0       0.26607165432936575           0.3668587395364398 0.6894709349214055 1.0000   
         C         C         1.0       0.24769612438035027           0.3875493795808399 0.6925014402006895 1.0000   
         C         C         1.0       0.24358541773412778           0.4695928857940301 0.6796015016382816 1.0000   
         C         C         1.0       0.2718180559238541  0.49952711605764294           0.6650120095257579 1.0000   
         C         C         1.0       0.30632495927645825           0.528937800563612  0.6740493533029189 1.0000   
         C         C         1.0       0.3138489794834521  0.5264964882211056  0.6983702616690555 1.0000   
         C         C         1.0       0.28823534026347175           0.49563920116635996          0.7127855030822333 1.0000   
         C         C         1.0       0.25127146027365216           0.46818457653547707          0.7040103178475229 1.0000   
         H         H         1.0       0.1558807740528077  0.464508420400353   0.8603474971108223 1.0000   
         H         H         1.0       0.16401415432751645           0.4885539600035994 0.7848906409278834 1.0000   
         H         H         1.0       0.18051898589562143           0.5574181618696763 0.7956346060332551 1.0000   
         H         H         1.0       0.16299145147065047           0.5262855470409428 0.8703340663272925 1.0000   
         H         H         1.0       0.12148806460335174           0.41894598548425294          0.7768466593073798 1.0000   
         H         H         1.0       0.048573054203650434          0.36987836680540503          0.7739024365159421 1.0000   
         H         H         1.0       0.04525531003798806           0.3504872419904695 0.8499769692929102 1.0000   
         H         H         1.0       0.10833626767579668           0.3928869829771809 0.8523261993360958 1.0000   
         H         H         1.0       0.234238656580124   0.4965746792797805  0.7926938257849004 1.0000   
         H         H         1.0       0.24708288829206176           0.4964287876679873 0.7502706269937026 1.0000   
         H         H         1.0       0.1799611317112866  0.3709657015514617  0.7510208777797123 1.0000   
         H         H         1.0       0.15847747417508048           0.37239208521006945          0.7898784112183923 1.0000   
         H         H         1.0       0.11455432816270773           0.4334415495557996 0.6998717143692257 1.0000   
         H         H         1.0       0.1777331065409235  0.4628039516141069  0.7137227628319376 1.0000   
         H         H         1.0       0.17345570395327803           0.3541623121490449 0.7061380470403271 1.0000   
         H         H         1.0       0.1061769426836641  0.3230657569214361  0.697015508455309  1.0000   
         H         H         1.0       0.27260669059334586           0.4158303294348925 0.7504061389996967 1.0000   
         H         H         1.0       0.3033717012982397  0.3803469382370893  0.7458811899001269 1.0000   
         H         H         1.0       0.27015398259601736           0.3564413141830556 0.6723630286583219 1.0000   
         H         H         1.0       0.232891391550902   0.3913427832327546  0.6768814490820607 1.0000   
         H         H         1.0       0.21929275497968045           0.44615786717915235          0.6707754093183221 1.0000   
         H         H         1.0       0.26904767430632637           0.5035177622908201 0.6463993188012068 1.0000   
         H         H         1.0       0.3425785679902436  0.5484755769262336  0.7035368084824928 1.0000   
         H         H         1.0       0.29596734896696697           0.4966239846893394 0.7314005293113288 1.0000   
         C         C         1.0       0.882196578679957   0.643631050433493   0.6013614193652208 1.0000   
         C         C         1.0       0.9143897211356603  0.6770323937980018  0.5953938617314222 1.0000   
         C         C         1.0       0.9431270604364698  0.676761159453275   0.5817556455746814 1.0000   
         C         C         1.0       0.937852926730351   0.6419701844648014  0.5710477547601884 1.0000   
         C         C         1.0       0.9019739247224876  0.6093038895510594  0.5747920299947485 1.0000   
         C         C         1.0       0.8758422679512887  0.6092332969035391  0.591275203690208  1.0000   
         H         H         1.0       0.9191149913139988  0.7067202423424999  0.6009622421342466 1.0000   
         H         H         1.0       0.9682693022793469  0.7043140497546946  0.5777213334519621 1.0000   
         H         H         1.0       0.8940908920484208  0.583204518411115   0.5646076839117257 1.0000   
         H         H         1.0       0.8514126637781559  0.5822644293959837  0.5953856965202535 1.0000   
         C         C         1.0       0.9759487476255984  0.5979969734839556  0.5838982164044443 1.0000   
         C         C         1.0       0.979300082087812   0.6103414099603235  0.5597073231623911 1.0000   
         C         C         1.0       0.9935041467925673  0.5948747769484425  0.5425209655154005 1.0000   
         C         C         1.0       0.9991425797521037  0.5648045641562335  0.548978578977663  1.0000   
         C         C         1.0       0.9929952487096787  0.5531409776670578  0.5734853257991538 1.0000   
         C         C         1.0       0.9829326796059701  0.5706041420103696  0.5908758775372162 1.0000   
         C         C         1.0       0.9719313350101445  0.643448437186593   0.5546141172753377 1.0000   
         C         C         1.0       0.013791793553729503          0.6807160843703604 0.5569388288388635 1.0000   
         C         C         1.0       0.03995194664336583           0.6983436520157615 0.5370013882708911 1.0000   
         C         C         1.0       0.07798209405105747           0.7264426896680574 0.5402327832082671 1.0000   
         C         C         1.0       0.09141049038983423           0.7416403566805736 0.5634551775309196 1.0000   
         C         C         1.0       0.0661827847533107  0.7257829061142496  0.5827777612785046 1.0000   
         C         C         1.0       0.029256505011451273          0.6948096693834042 0.5793707261687434 1.0000   
         C         C         1.0       0.9370734045010041  0.6100423128790353  0.5143794690667213 1.0000   
         C         C         1.0       0.9310882262182515  0.613688126582985   0.9962617423412944 1.0000   
         C         C         1.0       0.9417726936564075  0.6524802501372122  0.9897271791936668 1.0000   
         C         C         1.0       0.9645993715804291  0.6809737105422826  0.006407838520710474         1.0000   
         C         C         1.0       0.9559851350087423  0.6751456156305325  0.5199397446209645 1.0000   
         C         C         1.0       0.9543159508197374  0.6422340652432994  0.5288663437969546 1.0000   
         C         C         1.0       0.9372288536395184  0.665300896761887   0.9627445030695415 1.0000   
         C         C         1.0       0.05960600344052469           0.7392683053643648 0.9407877098775429 1.0000   
         C         C         1.0       0.043965347705459075          0.6998932642455199 0.9442136816431507 1.0000   
         C         C         1.0       0.005779305347323405          0.6774072720416726 0.9509850911633794 1.0000   
         C         C         1.0       0.9814510812914679  0.6931660476858612  0.9542792006400244 1.0000   
         C         C         1.0       0.9983293380900272  0.7339755370600379  0.9513578708918063 1.0000   
         C         C         1.0       0.03695502324516142           0.755112050015177  0.9454286581720243 1.0000   
         C         C         1.0       0.9097925676137568  0.6838287383625189  0.966052982602012  1.0000   
         C         C         1.0       0.8856861245468531  0.6805314952438398  0.9860499094932216 1.0000   
         C         C         1.0       0.858137282688842   0.6912927554128276  0.9857879089182895 1.0000   
         C         C         1.0       0.8532453742078157  0.7057079608531933  0.9646763668549878 1.0000   
         C         C         1.0       0.8795708164678954  0.7144723002670629  0.9457833617872228 1.0000   
         C         C         1.0       0.9062414849043378  0.7029818698409558  0.9461407137684562 1.0000   
         C         C         1.0       0.9288856270236867  0.6313029188030037  0.9190471637912866 1.0000   
         C         C         1.0       0.910850392053933   0.6013151587856675  0.9036585335471622 1.0000   
         C         C         1.0       0.8785161643114072  0.5685908706257693  0.9112012889766143 1.0000   
         C         C         1.0       0.864088881361709   0.5657180006071807  0.9341969822292477 1.0000   
         C         C         1.0       0.8808727669389721  0.5985503847757621  0.9494999341248543 1.0000   
         C         C         1.0       0.9164644113038412  0.6299885303194741  0.9429754835889036 1.0000   
         H         H         1.0       0.9673835705551532  0.6115403956267318  0.5984089919978797 1.0000   
         H         H         1.0       7.445804842021175e-05         0.6061181746888328 0.5241663099764736 1.0000   
         H         H         1.0       0.010260667096025688          0.5538195079135666 0.5349026829948674 1.0000   
         H         H         1.0       0.9741154274147755  0.5597009187336991  0.6083162938975841 1.0000   
         H         H         1.0       0.030646887431459158          0.6894774768035192 0.5186444020460553 1.0000   
         H         H         1.0       0.0975744056705159  0.7433466267272948  0.5248857638328556 1.0000   
         H         H         1.0       0.07590084413031252           0.7368205620555288 0.6010719425995432 1.0000   
         H         H         1.0       0.014755025554056722          0.6804312514594659 0.596038451687425  1.0000   
         H         H         1.0       0.9288500219012015  0.5817836754767066  0.5229651854797649 1.0000   
         H         H         1.0       0.9172437791554748  0.5887081358362874  0.9851220753219402 1.0000   
         H         H         1.0       0.9814814478112537  0.7114564841730211  0.003070562995885151         1.0000   
         H         H         1.0       0.9687363929304605  0.7022210052098482  0.5296120178137415 1.0000   
         H         H         1.0       0.06173658029636108           0.6859561063476973 0.944751538401671  1.0000   
         H         H         1.0       0.9956274083107652  0.6478444232589051  0.956400736012281  1.0000   
         H         H         1.0       0.9821392408332786  0.7477287715751962  0.954353830128758  1.0000   
         H         H         1.0       0.04838049673667732           0.7852938086248471 0.9449927885692949 1.0000   
         H         H         1.0       0.8882270113343583  0.6688478931424076  0.0024805353466528235        1.0000   
         H         H         1.0       0.842335470528921   0.6944865373255555  0.0023775330529687277        1.0000   
         H         H         1.0       0.8754471183114312  0.7279148317236936  0.929724271369025  1.0000   
         H         H         1.0       0.922506719210411   0.7088367016422512  0.9290044005037688 1.0000   
         H         H         1.0       0.9517751795799062  0.6585355981711122  0.9112216246251595 1.0000   
         H         H         1.0       0.9215875257292717  0.6020431687405573  0.8854809459639629 1.0000   
         H         H         1.0       0.8355187358529693  0.5417068668787551  0.9405464372072796 1.0000   
         H         H         1.0       0.868702957059554   0.6031412742074681  0.9663143313363919 1.0000   
         C         C         1.0       0.4541824667658861  0.25458301825911994           0.7758639114199636 1.0000   
         C         C         1.0       0.4190113790989111  0.2493447043551831  0.7670332370443941 1.0000   
         C         C         1.0       0.42043577028012047           0.26834398564115736          0.7460950959156738 1.0000   
         C         C         1.0       0.454538535057516   0.29049101166170355           0.7330313773414546 1.0000   
         C         C         1.0       0.4883288011597899  0.2955547811978895  0.7421932132372203 1.0000   
         C         C         1.0       0.4875307000025795  0.2768254578415383  0.762858301784208  1.0000   
         H         H         1.0       0.3924277921156163  0.23449885643446688           0.7780708320122175 1.0000   
         H         H         1.0       0.3937695224830429  0.26377773491389056           0.7403774984139435 1.0000   
         H         H         1.0       0.5155911447742118  0.31252353509329184           0.7335615144938908 1.0000   
         H         H         1.0       0.5157945774459597  0.28244912592529653           0.7675223325148529 1.0000   
         C         C         1.0       0.5082674298723253  0.3749755482173345  0.7238834103150995 1.0000   
         C         C         1.0       0.49331850388812576           0.348765757911438  0.7030459656506822 1.0000   
         C         C         1.0       0.5095382158602387  0.3661124703714577  0.6815977171429894 1.0000   
         C         C         1.0       0.5378172038445168  0.4040760053611622  0.6787968853293935 1.0000   
         C         C         1.0       0.5520553405041663  0.4281863145897502  0.6986124164124424 1.0000   
         C         C         1.0       0.5374538478697155  0.4117828186868849  0.7214191542345437 1.0000   
         C         C         1.0       0.45341867629445853           0.3093858803164938 0.7073990141751244 1.0000   
         C         C         1.0       0.4204699554408377  0.3198827498865587  0.7032469288648574 1.0000   
         C         C         1.0       0.4073234799660534  0.32243653863049465           0.6803749443231061 1.0000   
         C         C         1.0       0.3857998933509508  0.33926521655789604           0.6785843375387998 1.0000   
         C         C         1.0       0.3730664364598832  0.3522132517261151  0.69905280854257   1.0000   
         C         C         1.0       0.3873285460586722  0.3517830271947706  0.7204384573965967 1.0000   
         C         C         1.0       0.40979847496013155           0.3353315920947111 0.7227899204723692 1.0000   
         C         C         1.0       0.46621857993194177           0.2709070002128098 0.6729896669378203 1.0000   
         C         C         1.0       0.4543158243381151  0.2440084873064648  0.6549961449169122 1.0000   
         C         C         1.0       0.4149221062417426  0.21510428330892176           0.652371847997194  1.0000   
         C         C         1.0       0.3900859147134026  0.2153026785647993  0.6709827322787751 1.0000   
         C         C         1.0       0.4039679112780258  0.24182060774411815           0.6892377999002299 1.0000   
         C         C         1.0       0.4418316854803871  0.27260695792226286           0.6892836723545787 1.0000   
         C         C         1.0       0.39939071458772674           0.1870407406345251 0.6288158419689205 1.0000   
         C         C         1.0       0.35618130726401137           0.255682685393666  0.595499317139924  1.0000   
         C         C         1.0       0.3954207789266144  0.2687876488761674  0.5938609450229158 1.0000   
         C         C         1.0       0.40926937750792003           0.2463478828637686 0.6019844699622637 1.0000   
         C         C         1.0       0.38329842067681286           0.20971328831469893          0.6129890265751545 1.0000   
         C         C         1.0       0.34595846968370236           0.20115221378444492          0.6169567919278706 1.0000   
         C         C         1.0       0.3323510419571617  0.2225336563323084  0.6078435363817929 1.0000   
         C         C         1.0       0.3669032173450555  0.14325455023919248           0.6366998855445695 1.0000   
         C         C         1.0       0.36549219606986477           0.1280358589131219 0.6591923341339586 1.0000   
         C         C         1.0       0.3385177104686091  0.09144877366228021           0.6655325422762136 1.0000   
         C         C         1.0       0.3113047246733205  0.06746670661625173           0.6498413714713982 1.0000   
         C         C         1.0       0.31112685109699917           0.08222256705469105          0.6271596833223763 1.0000   
         C         C         1.0       0.33995491815258827           0.11879961586362091          0.6203394374764725 1.0000   
         C         C         1.0       0.42429593604858423           0.17488262280459987          0.5881443143962524 1.0000   
         C         C         1.0       0.4511062244496391  0.1710153447934496  0.5747178274090585 1.0000   
         C         C         1.0       0.4814420676929107  0.16971310534209078           0.5851829588443168 1.0000   
         C         C         1.0       0.48551762269749965           0.17322154158211092          0.6095601987125953 1.0000   
         C         C         1.0       0.45842050064728374           0.1767831284685879 0.623715720933449  1.0000   
         C         C         1.0       0.42864166431250356           0.17971717294042755          0.6131704835266085 1.0000   
         H         H         1.0       0.4965072580108194  0.369794760653525   0.7418110277184355 1.0000   
         H         H         1.0       0.49763798612238985           0.35036918703715847          0.6653794241730753 1.0000   
         H         H         1.0       0.5504456199336836  0.41578011232825574           0.6613907778078093 1.0000   
         H         H         1.0       0.5460514011544236  0.42885878320019094           0.7374491288038356 1.0000   
         H         H         1.0       0.42154833968608485           0.3181248727265097 0.6645922522286666 1.0000   
         H         H         1.0       0.3766015752715072  0.3410762929790687  0.6609045717946027 1.0000   
         H         H         1.0       0.3763430196613452  0.36239470501880705           0.7349146383332051 1.0000   
         H         H         1.0       0.4182676991870798  0.33734529629224735           0.7418856839688125 1.0000   
         H         H         1.0       0.49370794108829796           0.2952999380103346 0.6710934303594889 1.0000   
         H         H         1.0       0.475465681499584   0.24690211889489344           0.6425602061703515 1.0000   
         H         H         1.0       0.359582082366757   0.19286145394550658           0.6707917306476975 1.0000   
         H         H         1.0       0.3834060744034134  0.24182151055604406           0.7036684342473665 1.0000   
         H         H         1.0       0.41603651020884147           0.29576705150934485          0.5878895971865032 1.0000   
         H         H         1.0       0.44001928907229854           0.26017940208664314          0.6007608682649721 1.0000   
         H         H         1.0       0.32834465475821867           0.1804135978319423 0.6297634256981108 1.0000   
         H         H         1.0       0.30180860428649325           0.21142563496481773          0.610951659988158  1.0000   
         H         H         1.0       0.3916726412816139  0.1459398176055328  0.6697523133934171 1.0000   
         H         H         1.0       0.3437366695043313  0.08268376261759276           0.682935656249321  1.0000   
         H         H         1.0       0.2876185472483165  0.06332773739458467           0.6145872840897855 1.0000   
         H         H         1.0       0.3388931619716412  0.1280376948455672  0.6022530624276416 1.0000   
         H         H         1.0       0.4021678587091252  0.17866889832809352           0.5810031862961434 1.0000   
         H         H         1.0       0.44684864749543085           0.16397434055674487          0.5553011509138975 1.0000   
         H         H         1.0       0.5093031535911205  0.17179395980111203           0.617922571940655  1.0000   
         H         H         1.0       0.4601552459564584  0.1756816147872648  0.6424220112959649 1.0000   
         C         C         1.0       0.3061370741224298  0.3425283992626917  0.7040521304992767 1.0000   
         C         C         1.0       0.3476862268610017  0.36987053811874276           0.6969438898086796 1.0000   
         H         H         1.0       0.2902421158085126  0.3200166378439812  0.6905515902892833 1.0000   
         H         H         1.0       0.3035996977872185  0.32656531597837046           0.7199513376636    1.0000   
         H         H         1.0       0.3601448780807059  0.3974234887102042  0.7075542571344897 1.0000   
         H         H         1.0       0.348869049449854   0.3804482633643045  0.6781519663067922 1.0000   
         C         C         1.0       0.13233719770420413           0.7769007337911549 0.5661385301184233 1.0000   
         C         C         1.0       0.160516893079367   0.7685451777569127  0.579448917663504  1.0000   
         H         H         1.0       0.14523682835211346           0.7885408295091263 0.5490630738831569 1.0000   
         H         H         1.0       0.13131794351249756           0.8015741414311625 0.5753340046508775 1.0000   
         H         H         1.0       0.1575579114037744  0.7715205690032261  0.5996708674622178 1.0000   
         H         H         1.0       0.1581497985323919  0.7407388428988416  0.5761352568085627 1.0000   
         C         C         1.0       0.28838266328090073           0.0025470123373696483        0.6748386346749327 1.0000   
         C         C         1.0       0.27862949816323784           0.02721489324628294          0.6574303511105227 1.0000   
         H         H         1.0       0.2612711712208086  0.9814011063256969  0.6831957737840622 1.0000   
         H         H         1.0       0.3012154409405684  0.018259004202907773         0.6927939398594075 1.0000   
         H         H         1.0       0.25706263432526283           0.03263869369885404          0.6677641370565023 1.0000   
         H         H         1.0       0.2608104091036957  0.008742372806101793         0.6428406746554008 1.0000   
         C         C         1.0       0.9852364567470384  0.29550755685251634           0.7942004288821858 1.0000   
         C         C         1.0       0.9974241499084431  0.3297838219354289  0.8112807640145213 1.0000   
         H         H         1.0       0.0015885226631213722         0.2798842079587114 0.7945202527165429 1.0000   
         H         H         1.0       0.9898957835515074  0.30898916827376854           0.7772463646488705 1.0000   
         H         H         1.0       0.9872935000866112  0.3208091928822454  0.8305904344420579 1.0000   
         H         H         1.0       0.9833921864570816  0.3462908500353196  0.8065476683899601 1.0000   
         C         C         1.0       0.5834799932545786  0.12746900545142245           0.9124252510065777 1.0000   
         C         C         1.0       0.6126350992306894  0.14604412115204607           0.8905053236743352 1.0000   
         H         H         1.0       0.5991984150205801  0.14136072457154344           0.9294815996215943 1.0000   
         H         H         1.0       0.5717626499794638  0.09460853782292813           0.9148823040363633 1.0000   
         H         H         1.0       0.6225585472471168  0.17610046759144204           0.8872947544811223 1.0000   
         H         H         1.0       0.5927765309787387  0.1295221388741338  0.876452181180423  1.0000   
         C         C         1.0       0.2516032173918222  0.9846486458915048  0.47241672160299975          1.0000   
         C         C         1.0       0.26453457266548847           0.9568963673728758 0.46349597995564573          1.0000   
         H         H         1.0       0.23656191531697995           0.9745148983825784 0.4899364333572954 1.0000   
         H         H         1.0       0.23106080741574125           0.986351026178809  0.4602703572027132 1.0000   
         H         H         1.0       0.24553017438616    0.9819222980109102  0.004643008116735903         1.0000   
         H         H         1.0       0.21448447719677383           0.9595544946148417 0.027505572034362213         1.0000   
         C         C         1.0       0.5129265185210627  0.1657771517182824  0.5703380621781288 1.0000   
         C         C         1.0       0.5019593989970162  0.13143799563686803           0.5535712885269111 1.0000   
         H         H         1.0       0.5296618735280165  0.19225711202082293           0.5594335193056399 1.0000   
         H         H         1.0       0.5363442096612652  0.16943789326963593           0.5822968389753197 1.0000   
         H         H         1.0       0.4845062764486056  0.10361091020037251           0.5637700368088508 1.0000   
         H         H         1.0       0.5275995101667553  0.13064912672858833           0.5482398900505715 1.0000   
         C         C         1.0       0.45656680001962063           0.23709623864328788          0.8001288393015421 1.0000   
         C         C         1.0       0.47529260653629135           0.2653613421566304 0.8215322916664584 1.0000   
         H         H         1.0       0.4272988942029553  0.21455016010195432           0.8085099581047518 1.0000   
         H         H         1.0       0.4699209747008156  0.21984598501466193           0.7952034416250466 1.0000   
         H         H         1.0       0.4613649475613273  0.282977044942111   0.8245473498111888 1.0000   
         H         H         1.0       0.5058828130421212  0.2863097903918948  0.8163950467435377 1.0000   
         C         C         1.0       0.9571810429087984  0.4835050936287401  0.5830854253761664 1.0000   
         C         C         1.0       0.9970520897824782  0.520208211898114   0.5829673325215862 1.0000   
         H         H         1.0       0.9438502211860923  0.48527105047064456           0.5664932770995682 1.0000   
         H         H         1.0       0.9377105201177673  0.48388572987217293           0.5975605536108621 1.0000   
         H         H         1.0       0.017417690168108457          0.5160334282177969 0.5719135132430386 1.0000   
         H         H         1.0       0.008902183107806882          0.5229378355154297 0.6006239734999177 1.0000   
         C         C         1.0       0.034095556389575815          0.3274955049847251 0.7117011818192224 1.0000   
         C         C         1.0       0.06122610792104549           0.3555504510861355 0.6914548933517513 1.0000   
         H         H         1.0       0.03208102850578023           0.34439756051527975          0.7260351032191901 1.0000   
         H         H         1.0       0.04918251900117279           0.31358823135684166          0.7186820050690427 1.0000   
         H         H         1.0       0.0571778430621302  0.33795285528640795           0.6746894583251914 1.0000   
         H         H         1.0       0.0512132351892338  0.3758071317451235  0.6855789328378167 1.0000   
         C         C         1.0       0.757157937489709   0.24158512548958402           0.723610948007722  1.0000   
         C         C         1.0       0.7283229656347017  0.2068341173691805  0.7397834623546736 1.0000   
         H         H         1.0       0.7753769254483953  0.2697030716824661  0.7337455934915794 1.0000   
         H         H         1.0       0.7395195148371307  0.24764898394714122           0.7111303927747188 1.0000   
         H         H         1.0       0.7145647167761041  0.18184523432383434           0.7274344908482933 1.0000   
         H         H         1.0       0.7038662666747915  0.2093494571372717  0.7463681935635652 1.0000   
         C         C         1.0       0.8457016603193026  0.2002989431467246  0.0062634440222351095        1.0000   
         C         C         1.0       0.8480480679776421  0.22144851469024252           0.9832371672636092 1.0000   
         H         H         1.0       0.8538612421276176  0.17843415909426802           0.0018297393350610314        1.0000   
         H         H         1.0       0.8175926616948158  0.1844499323881554  0.012849793444448254         1.0000   
         H         H         1.0       0.8379748821091871  0.2408862877259977  0.9875688299049908 1.0000   
         H         H         1.0       0.879946142312688   0.24005902457274536           0.9764456845876092 1.0000   
         C         C         1.0       0.34979640783705745           0.3161890748391839 0.6050038167344631 1.0000   
         C         C         1.0       0.34243226841107494           0.28317336512089925          0.5870691828600083 1.0000   
         H         H         1.0       0.38078104140989194           0.33206787507618846          0.6085467079828256 1.0000   
         H         H         1.0       0.33768463835112394           0.3035063042015592 0.623400155418577  1.0000   
         H         H         1.0       0.3107954663701022  0.26268327655916474           0.582322920941773  1.0000   
         H         H         1.0       0.3582911028210822  0.29740679379105356           0.5710251509237013 1.0000   
         C         C         1.0       0.36464219830416666           0.5580611856506791 0.6444888368108954 1.0000   
         C         C         1.0       0.33252843769717594           0.5634133490586518 0.6573193994297449 1.0000   
         H         H         1.0       0.3769052508016229  0.550744351686541   0.6591818094091834 1.0000   
         H         H         1.0       0.38590783412701846           0.5872780183267273 0.6364481593701431 1.0000   
         H         H         1.0       0.31408749296437394           0.566316266295105  0.6443574662616534 1.0000   
         H         H         1.0       0.35012932096350957           0.5909775553182335 0.6683305655981799 1.0000   
         C         C         1.0       0.2323675854871619  0.39241696918825664           0.9178845248855891 1.0000   
         C         C         1.0       0.24906380883596205           0.40090780400982684          0.8915070681514055 1.0000   
         H         H         1.0       0.20622996833455212           0.36265707229474503          0.9184147825857023 1.0000   
         H         H         1.0       0.22183348399391786           0.41300284065112686          0.9216891202455173 1.0000   
         H         H         1.0       0.2798895288239031  0.4250675571090859  0.8932485255062851 1.0000   
         H         H         1.0       0.25331781125296843           0.3766934328123449 0.8832287649417965 1.0000   
         C         C         1.0       0.13486222970261186           0.36616646246359746          0.5956243997758509 1.0000   
         C         C         1.0       0.1238727806870842  0.39749070435940825           0.6005246768726381 1.0000   
         H         H         1.0       0.12106464159557695           0.34846815374231666          0.5787388185133295 1.0000   
         H         H         1.0       0.12323528802324568           0.3434670692654419 0.6108517400164504 1.0000   
         H         H         1.0       0.14043535676858668           0.41952847991808023          0.5867630860673506 1.0000   
         H         H         1.0       0.13563341156147504           0.41316435358149145          0.6187600556980584 1.0000   
         C         C         1.0       0.3561885401445419  0.2527269715706981  0.5072639615164812 1.0000   
         C         C         1.0       0.38148163499807347           0.29467553505527183          0.004943820315744363         1.0000   
         H         H         1.0       0.32297453342820354           0.24912935981444534          0.9992596863052189 1.0000   
         H         H         1.0       0.35889065136200266           0.2592883857519645 0.5263276884040096 1.0000   
         H         H         1.0       0.41836561455282345           0.29791853214674513          0.49927515500180925          1.0000   
         H         H         1.0       0.3966068694519227  0.292982065383726   0.988174474783491  1.0000   
         C         C         1.0       0.5044019138189321  0.5422536648096082  0.959534333252521  1.0000   
         C         C         1.0       0.5431251025262961  0.5460839919279917  0.9639735992058585 1.0000   
         H         H         1.0       0.5034235183434473  0.5465066586417153  0.9393074358789691 1.0000   
         H         H         1.0       0.5042163549228512  0.5675122039777973  0.9678141568586571 1.0000   
         H         H         1.0       0.545118950398621   0.5247582529508846  0.9497567742419813 1.0000   
         H         H         1.0       0.5450238841099765  0.5327767778249436  0.9818528452536364 1.0000   
         C         C         1.0       0.7198054166361934  0.974077271108262   0.9106907259124783 1.0000   
         C         C         1.0       0.7023989647040711  0.9611574047147938  0.8854190947970922 1.0000   
         H         H         1.0       0.7446487058480104  0.9694325991296896  0.9137122293994946 1.0000   
         H         H         1.0       0.6971158412575709  0.9562311100868246  0.9238046821851102 1.0000   
         H         H         1.0       0.7248826474772504  0.9783281276303336  0.8714824343196254 1.0000   
         H         H         1.0       0.6789698779226699  0.968173158829323   0.8855100584884796 1.0000   
         C         C         1.0       0.7835069683385048  0.6854335429390067  0.957981815863305  1.0000   
         C         C         1.0       0.8230388832649563  0.7184516703232618  0.9633168450476538 1.0000   
         H         H         1.0       0.7729920050295939  0.6615990036889392  0.9717990133432945 1.0000   
         H         H         1.0       0.7812991801413133  0.670739399514975   0.9409129689977229 1.0000   
         H         H         1.0       0.8230735560255008  0.731653831228783   0.9805378306142534 1.0000   
         H         H         1.0       0.8334706163820818  0.7418052446142215  0.9498702998007466 1.0000   
         C         C         1.0       0.5665405789027127  0.012463265409465185         0.6304925018351359 1.0000   
         C         C         1.0       0.5387127996050665  0.9995960165721732  0.6098267168810843 1.0000   
         H         H         1.0       0.5502012769750827  0.013353841042318182         0.6473067468466441 1.0000   
         H         H         1.0       0.5874550930190106  0.04274304979151078           0.6287355971120989 1.0000   
         H         H         1.0       0.5428458583356498  0.9780713939139672  0.5993147657140109 1.0000   
         H         H         1.0       0.5492834517548634  0.021372481128167475         0.5949364288671984 1.0000   
         C         C         1.0       0.8064965348955379  0.997325879802453   0.7726677545820514 1.0000   
         C         C         1.0       0.8312040887464052  0.038354180801874395         0.7619671658112953 1.0000   
         H         H         1.0       0.8075422195093576  0.9992564653471236  0.7930140217453242 1.0000   
         H         H         1.0       0.8256489005767588  0.9847341682687166  0.7684621085699843 1.0000   
         H         H         1.0       0.8293976256780213  0.037670025434008096         0.7419828382313469 1.0000   
         H         H         1.0       0.8622133690043219  0.048273868835878524         0.765215808566366  1.0000   
         C         C         1.0       0.5240199195749428  0.7968682377791596  0.7995473958081593 1.0000   
         C         C         1.0       0.519534830976613   0.7589563884695847  0.8105037460068775 1.0000   
         H         H         1.0       0.5258689313725858  0.8158300699396603  0.8145566900032681 1.0000   
         H         H         1.0       0.49540838781590496           0.7904511814990828 0.7922893440504956 1.0000   
         H         H         1.0       0.5134189732328919  0.7368173807172093  0.7945624946848014 1.0000   
         H         H         1.0       0.49260309724180096           0.7468847984408791 0.8220754438893668 1.0000   
         C         C         1.0       0.6689759326856783  0.8311485773570694  0.5464399899686144 1.0000   
         C         C         1.0       0.642452354364406   0.8488166887603564  0.5492018071335713 1.0000   
         H         H         1.0       0.663047357703293   0.8115043479425664  0.5613795375790389 1.0000   
         H         H         1.0       0.6991984671789551  0.853313798508685   0.5477384277318142 1.0000   
         H         H         1.0       0.6420881823700553  0.8633519695806521  0.533633942768298  1.0000   
         H         H         1.0       0.6118419501199381  0.8247368508997166  0.5509496878670629 1.0000   
         C         C         1.0       0.8126212453551718  0.04262302572828535           0.6788171444881851 1.0000   
         C         C         1.0       0.844307420299179   0.07181616259449826           0.662791367557467  1.0000   
         H         H         1.0       0.8065196944719456  0.05328829209800406           0.696349948556064  1.0000   
         H         H         1.0       0.8210332795907194  0.022546808592846634         0.6886516795271198 1.0000   
         H         H         1.0       0.8373959732305272  0.062181586743764505         0.6439360234691127 1.0000   
         H         H         1.0       0.8727856820028249  0.07471516989058552           0.6666975836802981 1.0000   
         C         C         1.0       0.6237471406009298  0.46640111270125756           0.7063228670047524 1.0000   
         C         C         1.0       0.5886111232307639  0.46872097034782195           0.6971599964543688 1.0000   
         H         H         1.0       0.6351475024154409  0.45459666642804014           0.6907274140254172 1.0000   
         H         H         1.0       0.6149940533099754  0.4476832179342934  0.7221930947831159 1.0000   
         H         H         1.0       0.596225079042181   0.4840921810513676  0.6785384832707556 1.0000   
         H         H         1.0       0.5853996762846962  0.4903692444688196  0.7083774956253033 1.0000   
         C         C         1.0       0.853054737095984   0.6385838603825659  0.6218137115949786 1.0000   
         C         C         1.0       0.8746313204701356  0.6562081397134102  0.644693881393005  1.0000   
         H         H         1.0       0.8367420917290476  0.6526428620845863  0.6164084414532706 1.0000   
         H         H         1.0       0.8331110629772438  0.6088170030511038  0.6266708410111259 1.0000   
         H         H         1.0       0.8921314781555463  0.6880501118915575  0.6429571661252441 1.0000   
         H         H         1.0       0.8961870901156569  0.6481587363732625  0.6484528771139476 1.0000   
         C         C         1.0       0.8200198766710491  0.5192630339870165  0.8823515716457054 1.0000   
         C         C         1.0       0.8614608431826135  0.5337783695843025  0.8925841553548227 1.0000   
         H         H         1.0       0.8009672230348346  0.5158050585134427  0.8983036667142296 1.0000   
         H         H         1.0       0.8093813095406621  0.49136505552712145           0.8737052257513652 1.0000   
         H         H         1.0       0.8811742268325926  0.5364103604161146  0.8775422055644755 1.0000   
         H         H         1.0       0.8596347345693599  0.5082066780927127  0.901294568949807  1.0000   
         C         C         1.0       0.7679351450693573  0.7550707640469941  0.8346919250267367 1.0000   
         C         C         1.0       0.7754664496197009  0.7386143018110622  0.8585598252085542 1.0000   
         H         H         1.0       0.7608719700649337  0.7339260402800899  0.8190514802320265 1.0000   
         H         H         1.0       0.7948137858109708  0.7825250829399031  0.8275440791364495 1.0000   
         H         H         1.0       0.7471197315661702  0.720460528842507   0.8680383212250182 1.0000   
         H         H         1.0       0.7932375382975206  0.761276396289525   0.8723241959763715 1.0000   
         C         C         1.0       0.6888924734040077  0.718245819083037   0.7247827943671975 1.0000   
         C         C         1.0       0.721189870903783   0.7616382176149559  0.7297625563484674 1.0000   
         H         H         1.0       0.6797900017943588  0.7163279991713812  0.7062146365071716 1.0000   
         H         H         1.0       0.6645386668923335  0.7088509438588891  0.7386208053188751 1.0000   
         H         H         1.0       0.7428790295383885  0.7699303942340656  0.715013080810539  1.0000   
         H         H         1.0       0.7392600974367415  0.7654473463441239  0.7450002913880654 1.0000   
         C         C         1.0       0.18491412205648147           0.5871257775558832 0.8386466633347012 1.0000   
         C         C         1.0       0.1499587963238822  0.5920877000507739  0.832609224452983  1.0000   
         H         H         1.0       0.19385676218477363           0.5943470674928695 0.8568392802074947 1.0000   
         H         H         1.0       0.20905422088022427           0.6051770557294078 0.8277652805475092 1.0000   
         H         H         1.0       0.12784205426136663           0.5806969015451859 0.8469904873342099 1.0000   
         H         H         1.0       0.13368912547910453           0.5740673336450675 0.8162815507587702 1.0000   
         C         C         1.0       0.13258846082327005           0.7872143768581553 0.9512018303623434 1.0000   
         C         C         1.0       0.10118666969499344           0.7675062058397857 0.9318201893164907 1.0000   
         H         H         1.0       0.13407536846560028           0.7662911800964866 0.9625924260141732 1.0000   
         H         H         1.0       0.12255363947984309           0.8016232848185    0.9643071239934863 1.0000   
         H         H         1.0       0.09901191049131694           0.7880705426481996 0.919000208625776  1.0000   
         H         H         1.0       0.11231148651482249           0.7516620577065217 0.920232512243754  1.0000   
         C         C         1.0       0.29101201206876104           0.017458977114179097         0.8369358337464337 1.0000   
         C         C         1.0       0.33133246096068575           0.05007169473619877          0.8287302651844161 1.0000   
         H         H         1.0       0.2720542615657321  0.001484147766975364         0.8215111416018053 1.0000   
         H         H         1.0       0.27452943110091627           0.02711249586341058          0.8479755888435392 1.0000   
         H         H         1.0       0.32226168045991693           0.0701663298376598 0.8214319457634911 1.0000   
         H         H         1.0       0.341790664013248   0.040280679852849444         0.8120711399244062 1.0000   
         C         C         1.0       0.026109786690618676          0.6912133347917664 0.8149699531767296 1.0000   
         C         C         1.0       0.012472312116701634          0.719530090188128  0.811562922097233  1.0000   
         H         H         1.0       0.016172850886993943          0.6678090436782582 0.8021984626388147 1.0000   
         H         H         1.0       0.019098900015963365          0.6772177516142235 0.8330920904110888 1.0000   
         H         H         1.0       0.023457998752365383          0.7406499209679632 0.8266680407438232 1.0000   
         H         H         1.0       0.02303272455538834           0.7374896723282555 0.7943502231462434 1.0000   
         C         C         1.0       0.3912182984752416  0.8609797661293717  0.9476418458926977 1.0000   
         C         C         1.0       0.40868303430902264           0.9030488844599375 0.9373721506362409 1.0000   
         H         H         1.0       0.41437537702651017           0.8555243522725499 0.9527421385677568 1.0000   
         H         H         1.0       0.37464784869754236           0.8404702505435346 0.932295448698834  1.0000   
         H         H         1.0       0.43687367075406897           0.9144018202680778 0.927094898409195  1.0000   
         H         H         1.0       0.41793140252033756           0.924242535625283  0.952297889570188  1.0000   
         C         C         1.0       0.2935249792799473  0.8391370903421798  0.7302420648046138 1.0000   
         C         C         1.0       0.29301882118140293           0.8143997143156353 0.7073883662432859 1.0000   
         H         H         1.0       0.32294090424962235           0.8575775945375599 0.7377363132134354 1.0000   
         H         H         1.0       0.28547677555743406           0.8586436788662712 0.7247500588456202 1.0000   
         H         H         1.0       0.26288562150572625           0.7931488033930583 0.7040408456717061 1.0000   
         H         H         1.0       0.30599549148771876           0.7968450467497351 0.7139961189972589 1.0000

